<?xml version="1.0" encoding="UTF-8"?>

<!-- generated on 2026-02-17 12:45:43 by Eclipse SUMO netedit Version 1.22.0
<neteditConfiguration xmlns:xsi="http://www.w3.org/2001/XMLSchema-instance" xsi:noNamespaceSchemaLocation="http://sumo.dlr.de/xsd/neteditConfiguration.xsd">

    <input>
        <sumo-net-file value="madrid.net.xml"/>
    </input>

    <output>
        <output-file value="madrid.net.xml"/>
    </output>

    <processing>
        <geometry.min-radius.fix.railways value="false"/>
        <geometry.max-grade.fix value="false"/>
        <offset.disable-normalization value="true"/>
        <lefthand value="0"/>
    </processing>

    <junctions>
        <no-turnarounds value="true"/>
        <junctions.corner-detail value="5"/>
        <junctions.limit-turn-speed value="5.50"/>
        <rectangular-lane-cut value="0"/>
    </junctions>

    <pedestrian>
        <walkingareas value="0"/>
    </pedestrian>

</neteditConfiguration>
-->

<net version="1.20" junctionCornerDetail="5" limitTurnSpeed="5.50" xmlns:xsi="http://www.w3.org/2001/XMLSchema-instance" xsi:noNamespaceSchemaLocation="http://sumo.dlr.de/xsd/net_file.xsd">

    <location netOffset="-439617.44,-4473008.86" convBoundary="179.75,619.12,1589.60,1831.07" origBoundary="-3.711811,40.405562,-3.691582,40.455568" projParameter="+proj=utm +zone=30 +ellps=WGS84 +datum=WGS84 +units=m +no_defs"/>

    <type id="highway.cycleway" priority="1" numLanes="1" speed="5.56" allow="bicycle" oneway="0" width="2.00"/>
    <type id="highway.footway" priority="1" numLanes="1" speed="2.78" allow="pedestrian" oneway="1" width="2.00"/>
    <type id="highway.living_street" priority="2" numLanes="1" speed="2.78" disallow="tram rail_urban rail rail_electric rail_fast ship container cable_car subway aircraft wheelchair scooter drone" oneway="0"/>
    <type id="highway.path" priority="1" numLanes="1" speed="5.56" allow="pedestrian bicycle" oneway="0" width="2.00"/>
    <type id="highway.pedestrian" priority="1" numLanes="1" speed="2.78" allow="pedestrian" oneway="1" width="2.00"/>
    <type id="highway.residential" priority="3" numLanes="1" speed="13.89" disallow="tram rail_urban rail rail_electric rail_fast ship container cable_car subway aircraft wheelchair scooter drone" oneway="0"/>
    <type id="highway.service" priority="1" numLanes="1" speed="5.56" allow="pedestrian delivery bicycle" oneway="0"/>
    <type id="highway.steps" priority="1" numLanes="1" speed="1.39" allow="pedestrian" oneway="1" width="2.00"/>
    <type id="highway.tertiary" priority="10" numLanes="1" speed="22.22" disallow="tram rail_urban rail rail_electric rail_fast ship container cable_car subway aircraft wheelchair scooter drone" oneway="0"/>
    <type id="railway.rail" priority="20" numLanes="1" speed="44.44" allow="rail" oneway="1"/>
    <type id="railway.subway" priority="18" numLanes="1" speed="27.78" allow="subway" oneway="1"/>

    <edge id=":10724269069_0" function="internal">
        <lane id=":10724269069_0_0" index="0" speed="27.78" length="20.83" shape="383.67,1322.54 379.11,1323.55 373.47,1324.79 367.90,1326.20 363.52,1327.72"/>
    </edge>
    <edge id=":10724269069_1" function="internal">
        <lane id=":10724269069_1_0" index="0" speed="27.78" length="20.83" shape="382.56,1319.26 363.52,1327.72"/>
    </edge>
    <edge id=":11127345768_0" function="internal">
        <lane id=":11127345768_0_0" index="0" speed="5.56" length="13.76" shape="425.27,1389.82 429.95,1402.75"/>
    </edge>
    <edge id=":11127345790_0" function="internal">
        <lane id=":11127345790_0_0" index="0" speed="13.89" length="5.99" shape="354.65,1410.05 348.75,1411.10"/>
    </edge>
    <edge id=":11127345799_0" function="internal">
        <lane id=":11127345799_0_0" index="0" speed="13.89" length="6.51" shape="279.34,1426.44 281.78,1432.47"/>
    </edge>
    <edge id=":1152699006_0" function="internal">
        <lane id=":1152699006_0_0" index="0" speed="22.22" length="0.22" shape="864.40,1506.07 864.42,1506.13 864.44,1506.17 864.46,1506.21 864.49,1506.27"/>
    </edge>
    <edge id=":11842447714_0" function="internal">
        <lane id=":11842447714_0_0" index="0" speed="13.89" length="0.10" shape="696.65,970.49 696.65,970.49"/>
    </edge>
    <edge id=":11842447724_0" function="internal">
        <lane id=":11842447724_0_0" index="0" speed="13.89" length="0.30" shape="697.86,972.55 697.70,972.29"/>
    </edge>
    <edge id=":11842453773_0" function="internal">
        <lane id=":11842453773_0_0" index="0" speed="8.33" length="8.21" shape="318.95,1152.49 318.88,1154.90 319.20,1156.56 319.53,1158.22 319.45,1160.63"/>
        <lane id=":11842453773_0_1" index="1" speed="8.33" length="8.21" shape="318.95,1152.49 318.38,1154.83 317.62,1156.34 316.86,1157.86 316.28,1160.20"/>
    </edge>
    <edge id=":1187929637_0" function="internal">
        <lane id=":1187929637_0_0" index="0" speed="5.56" length="6.55" shape="683.88,995.15 682.74,994.87 681.08,993.82 679.44,992.58 678.37,991.73"/>
    </edge>
    <edge id=":1187929637_1" function="internal">
        <lane id=":1187929637_1_0" index="0" speed="3.65" length="4.67" shape="683.88,995.15 682.45,994.91 681.76,994.35 681.80,993.45 682.56,992.23"/>
    </edge>
    <edge id=":11931751921_0" function="internal">
        <lane id=":11931751921_0_0" index="0" speed="5.67" length="6.78" width="2.00" shape="1147.64,1414.69 1145.50,1414.12 1143.82,1414.17 1142.60,1414.83 1141.83,1416.12"/>
    </edge>
    <edge id=":11931751921_1" function="internal">
        <lane id=":11931751921_1_0" index="0" speed="13.89" length="8.37" shape="1147.64,1414.69 1139.71,1411.57"/>
        <lane id=":11931751921_1_1" index="1" speed="13.89" length="8.37" shape="1148.76,1411.70 1140.97,1408.62"/>
        <lane id=":11931751921_1_2" index="2" speed="13.89" length="8.37" shape="1149.88,1408.70 1142.23,1405.68"/>
    </edge>
    <edge id=":11931751921_4" function="internal">
        <lane id=":11931751921_4_0" index="0" speed="5.56" length="12.08" width="2.00" shape="1145.61,1404.64 1141.83,1416.12"/>
    </edge>
    <edge id=":11931751921_5" function="internal">
        <lane id=":11931751921_5_0" index="0" speed="5.48" length="6.96" shape="1145.61,1404.64 1144.69,1406.86 1143.61,1408.26 1142.37,1408.85 1140.97,1408.62"/>
        <lane id=":11931751921_5_1" index="1" speed="4.34" length="4.10" shape="1145.61,1404.64 1145.14,1405.53 1144.41,1406.00 1143.45,1406.05 1142.23,1405.68"/>
    </edge>
    <edge id=":11931751922_0" function="internal">
        <lane id=":11931751922_0_0" index="0" speed="5.26" length="5.72" shape="1147.80,1397.88 1147.87,1398.67 1148.60,1399.49 1149.98,1400.33 1152.02,1401.20"/>
    </edge>
    <edge id=":11931751922_1" function="internal">
        <lane id=":11931751922_1_0" index="0" speed="5.56" length="6.91" width="2.00" shape="1147.80,1397.88 1145.67,1404.45"/>
    </edge>
    <edge id=":11931751922_2" function="internal">
        <lane id=":11931751922_2_0" index="0" speed="13.89" length="7.87" shape="1144.60,1398.48 1152.02,1401.20"/>
        <lane id=":11931751922_2_1" index="1" speed="13.89" length="7.87" shape="1143.53,1401.49 1150.90,1404.20"/>
    </edge>
    <edge id=":11931751922_4" function="internal">
        <lane id=":11931751922_4_0" index="0" speed="4.70" length="4.11" width="2.00" shape="1143.53,1401.49 1144.71,1402.05 1145.45,1402.73 1145.78,1403.53 1145.67,1404.45"/>
    </edge>
    <edge id=":11931751945_0" function="internal">
        <lane id=":11931751945_0_0" index="0" speed="13.89" length="6.26" shape="1117.81,1401.53 1112.13,1398.90"/>
        <lane id=":11931751945_0_1" index="1" speed="13.89" length="6.26" shape="1119.16,1398.63 1113.48,1396.00"/>
        <lane id=":11931751945_0_2" index="2" speed="13.89" length="6.26" shape="1120.50,1395.73 1114.82,1393.10"/>
    </edge>
    <edge id=":11931751945_3" function="internal">
        <lane id=":11931751945_3_0" index="0" speed="8.16" length="4.33" shape="1120.50,1395.73 1119.37,1395.15 1118.67,1394.60 1118.14,1393.88 1117.53,1392.76"/>
    </edge>
    <edge id=":11931751949_0" function="internal">
        <lane id=":11931751949_0_0" index="0" speed="13.89" length="14.41" shape="1036.77,1362.10 1033.67,1360.71 1031.09,1359.03 1028.71,1356.57 1026.19,1352.84"/>
        <lane id=":11931751949_0_1" index="1" speed="13.89" length="14.44" shape="1036.77,1362.10 1034.05,1360.37 1032.30,1357.92 1030.74,1354.70 1028.59,1350.61"/>
    </edge>
    <edge id=":11931751961_0" function="internal">
        <lane id=":11931751961_0_0" index="0" speed="5.56" length="8.37" shape="1016.19,1360.73 1013.76,1361.33 1012.04,1361.80 1010.35,1361.85 1008.05,1361.19"/>
    </edge>
    <edge id=":11937582052_0" function="internal">
        <lane id=":11937582052_0_0" index="0" speed="5.56" length="7.91" width="2.00" shape="1138.16,1392.00 1145.63,1394.60"/>
    </edge>
    <edge id=":11937582053_0" function="internal">
        <lane id=":11937582053_0_0" index="0" speed="13.89" length="8.03" shape="1136.86,1395.71 1144.42,1398.41"/>
        <lane id=":11937582053_0_1" index="1" speed="13.89" length="8.03" shape="1135.78,1398.72 1143.34,1401.43"/>
    </edge>
    <edge id=":11951726873_0" function="internal">
        <lane id=":11951726873_0_0" index="0" speed="5.56" length="1.42" shape="1238.87,1429.08 1238.42,1430.44"/>
    </edge>
    <edge id=":11951726874_0" function="internal">
        <lane id=":11951726874_0_0" index="0" speed="5.56" length="1.78" shape="1239.48,1427.20 1238.93,1428.89"/>
    </edge>
    <edge id=":11962062380_0" function="internal">
        <lane id=":11962062380_0_0" index="0" speed="9.72" length="10.30" shape="966.34,1252.61 965.76,1249.63 965.43,1247.49 964.81,1245.47 963.36,1242.86"/>
    </edge>
    <edge id=":11962062380_1" function="internal">
        <lane id=":11962062380_1_0" index="0" speed="13.89" length="10.28" shape="969.73,1250.92 967.78,1248.62 966.38,1247.01 965.06,1245.35 963.36,1242.86"/>
    </edge>
    <edge id=":1200524877_0" function="internal">
        <lane id=":1200524877_0_0" index="0" speed="10.95" length="11.36" shape="439.56,1416.57 436.83,1416.84 434.12,1416.51 431.44,1415.59 428.78,1414.07"/>
    </edge>
    <edge id=":12289775115_0" function="internal">
        <lane id=":12289775115_0_0" index="0" speed="27.78" length="0.10" shape="795.55,1279.29 795.55,1279.29"/>
    </edge>
    <edge id=":12325698972_0" function="internal">
        <lane id=":12325698972_0_0" index="0" speed="5.56" length="7.76" shape="522.63,1026.12 520.57,1027.17 519.18,1027.94 517.74,1028.56 515.53,1029.14"/>
    </edge>
    <edge id=":12361543467_0" function="internal">
        <lane id=":12361543467_0_0" index="0" speed="13.89" length="8.21" shape="1191.99,1429.08 1189.66,1428.49 1187.97,1428.46 1186.28,1428.44 1183.95,1427.86"/>
        <lane id=":12361543467_0_1" index="1" speed="13.89" length="8.21" shape="1193.09,1426.08 1190.76,1425.49 1189.06,1425.45 1187.37,1425.43 1185.03,1424.85"/>
        <lane id=":12361543467_0_2" index="2" speed="13.89" length="8.21" shape="1193.09,1426.08 1190.93,1425.01 1189.60,1423.95 1188.28,1422.88 1186.10,1421.84"/>
    </edge>
    <edge id=":12361543468_0" function="internal">
        <lane id=":12361543468_0_0" index="0" speed="13.89" length="8.20" shape="1212.80,1434.99 1210.46,1434.41 1208.77,1434.39 1207.07,1434.35 1204.74,1433.76"/>
        <lane id=":12361543468_0_1" index="1" speed="13.89" length="8.20" shape="1213.88,1431.97 1211.55,1431.40 1209.86,1431.38 1208.17,1431.35 1205.84,1430.76"/>
    </edge>
    <edge id=":12387155330_0" function="internal">
        <lane id=":12387155330_0_0" index="0" speed="5.44" length="6.09" shape="1230.69,1174.44 1230.45,1173.04 1230.86,1171.82 1231.92,1170.80 1233.65,1169.97"/>
    </edge>
    <edge id=":12387155330_1" function="internal">
        <lane id=":12387155330_1_0" index="0" speed="3.65" length="4.67" shape="1230.69,1174.44 1231.01,1173.03 1231.61,1172.37 1232.50,1172.46 1233.68,1173.29"/>
    </edge>
    <edge id=":12387155330_2" function="internal">
        <lane id=":12387155330_2_0" index="0" speed="8.33" length="7.42" shape="1225.58,1169.46 1232.57,1166.96"/>
        <lane id=":12387155330_2_1" index="1" speed="8.33" length="7.42" shape="1226.66,1172.47 1233.65,1169.97"/>
    </edge>
    <edge id=":12387155330_4" function="internal">
        <lane id=":12387155330_4_0" index="0" speed="6.14" length="7.79" shape="1226.66,1172.47 1229.31,1171.73 1231.36,1171.62 1232.82,1172.14 1233.68,1173.29"/>
    </edge>
    <edge id=":12387155331_0" function="internal">
        <lane id=":12387155331_0_0" index="0" speed="3.65" length="4.67" shape="1243.77,1199.34 1243.46,1200.75 1242.86,1201.41 1241.97,1201.33 1240.79,1200.50"/>
    </edge>
    <edge id=":12407768952_0" function="internal">
        <lane id=":12407768952_0_0" index="0" speed="8.33" length="10.07" shape="1050.12,1568.63 1040.72,1572.26"/>
        <lane id=":12407768952_0_1" index="1" speed="8.33" length="10.07" shape="1048.97,1565.65 1039.57,1569.28"/>
    </edge>
    <edge id=":12407768952_2" function="internal">
        <lane id=":12407768952_2_0" index="0" speed="8.33" length="10.07" shape="1037.26,1563.31 1046.66,1559.68"/>
        <lane id=":12407768952_2_1" index="1" speed="8.33" length="10.07" shape="1038.42,1566.29 1047.81,1562.66"/>
    </edge>
    <edge id=":12407768956_0" function="internal">
        <lane id=":12407768956_0_0" index="0" speed="8.33" length="10.06" shape="1143.88,1532.57 1134.49,1536.21"/>
        <lane id=":12407768956_0_1" index="1" speed="8.33" length="10.06" shape="1142.71,1529.59 1133.34,1533.23"/>
    </edge>
    <edge id=":12407768956_2" function="internal">
        <lane id=":12407768956_2_0" index="0" speed="8.33" length="10.02" shape="1131.05,1527.25 1140.38,1523.63"/>
        <lane id=":12407768956_2_1" index="1" speed="8.33" length="10.02" shape="1132.19,1530.24 1141.55,1526.61"/>
    </edge>
    <edge id=":1258876329_0" function="internal">
        <lane id=":1258876329_0_0" index="0" speed="8.33" length="10.00" shape="550.16,1214.40 553.07,1215.03 555.06,1215.61 557.05,1215.96 559.97,1215.86"/>
    </edge>
    <edge id=":1258876345_0" function="internal">
        <lane id=":1258876345_0_0" index="0" speed="8.33" length="9.38" shape="337.74,1179.59 347.02,1181.00"/>
    </edge>
    <edge id=":1258876347_0" function="internal">
        <lane id=":1258876347_0_0" index="0" speed="8.33" length="6.68" shape="395.08,1189.92 401.67,1191.05"/>
    </edge>
    <edge id=":12749720089_0" function="internal">
        <lane id=":12749720089_0_0" index="0" speed="8.33" length="11.40" shape="1125.89,1206.24 1136.59,1202.32"/>
        <lane id=":12749720089_0_1" index="1" speed="8.33" length="11.40" shape="1126.98,1209.25 1137.69,1205.33"/>
    </edge>
    <edge id=":12749720089_2" function="internal">
        <lane id=":12749720089_2_0" index="0" speed="6.53" length="10.82" shape="1126.98,1209.25 1129.95,1208.64 1132.18,1209.25 1133.67,1211.07 1134.42,1214.10"/>
    </edge>
    <edge id=":12802978734_0" function="internal">
        <lane id=":12802978734_0_0" index="0" speed="13.89" length="0.30" shape="1290.93,1448.66 1291.21,1448.76"/>
        <lane id=":12802978734_0_1" index="1" speed="13.89" length="0.30" shape="1289.91,1451.69 1290.19,1451.79"/>
        <lane id=":12802978734_0_2" index="2" speed="13.89" length="0.30" shape="1288.89,1454.73 1289.17,1454.82"/>
    </edge>
    <edge id=":13240433276_0" function="internal">
        <lane id=":13240433276_0_0" index="0" speed="5.56" length="0.10" shape="705.82,1486.64 705.82,1486.64"/>
    </edge>
    <edge id=":13240433277_0" function="internal">
        <lane id=":13240433277_0_0" index="0" speed="5.56" length="9.04" shape="691.14,1450.68 689.06,1452.08 688.00,1453.78 687.94,1455.79 688.90,1458.11"/>
    </edge>
    <edge id=":13240433277_1" function="internal">
        <lane id=":13240433277_1_0" index="0" speed="5.56" length="9.32" shape="691.14,1450.68 682.75,1454.72"/>
    </edge>
    <edge id=":13240433278_0" function="internal">
        <lane id=":13240433278_0_0" index="0" speed="5.50" length="9.68" shape="682.27,1461.37 680.03,1458.57 678.23,1457.47 676.85,1458.08 675.91,1460.38"/>
    </edge>
    <edge id=":13240433278_1" function="internal">
        <lane id=":13240433278_1_0" index="0" speed="5.56" length="8.90" shape="682.57,1454.81 679.89,1456.25 677.88,1457.65 676.56,1459.03 675.91,1460.38"/>
    </edge>
    <edge id=":13461405437_0" function="internal">
        <lane id=":13461405437_0_0" index="0" speed="8.33" length="0.10" shape="806.42,1073.38 806.42,1073.38"/>
    </edge>
    <edge id=":13504055794_0" function="internal">
        <lane id=":13504055794_0_0" index="0" speed="13.89" length="0.10" shape="1023.66,1503.46 1023.66,1503.46"/>
        <lane id=":13504055794_0_1" index="1" speed="13.89" length="0.10" shape="1020.50,1502.94 1020.50,1502.94"/>
    </edge>
    <edge id=":13506495919_0" function="internal">
        <lane id=":13506495919_0_0" index="0" speed="13.89" length="0.30" shape="1129.85,1309.34 1129.82,1309.64"/>
        <lane id=":13506495919_0_1" index="1" speed="13.89" length="0.30" shape="1126.66,1309.06 1126.64,1309.36"/>
        <lane id=":13506495919_0_2" index="2" speed="13.89" length="0.30" shape="1123.48,1308.78 1123.45,1309.08"/>
    </edge>
    <edge id=":1522690018_0" function="internal">
        <lane id=":1522690018_0_0" index="0" speed="13.89" length="5.21" shape="433.91,1396.43 434.53,1397.83 435.10,1398.72 435.82,1399.52 436.85,1400.67"/>
    </edge>
    <edge id=":1522690018_1" function="internal">
        <lane id=":1522690018_1_0" index="0" speed="5.80" length="4.33" shape="433.91,1396.43 434.14,1397.42 434.05,1398.42 433.65,1399.42 432.95,1400.43"/>
    </edge>
    <edge id=":1522690025_0" function="internal">
        <lane id=":1522690025_0_0" index="0" speed="13.27" length="10.63" shape="439.60,1403.00 442.13,1404.73 444.15,1405.67 446.36,1406.07 449.44,1406.24"/>
    </edge>
    <edge id=":1522690031_0" function="internal">
        <lane id=":1522690031_0_0" index="0" speed="13.89" length="10.80" shape="413.34,1409.08 410.35,1409.90 408.16,1410.63 406.04,1411.53 403.27,1412.91"/>
    </edge>
    <edge id=":1522690038_0" function="internal">
        <lane id=":1522690038_0_0" index="0" speed="13.89" length="0.29" shape="1232.15,1445.30 1231.93,1445.22"/>
        <lane id=":1522690038_0_1" index="1" speed="13.89" length="0.29" shape="1233.27,1442.30 1233.00,1442.20"/>
        <lane id=":1522690038_0_2" index="2" speed="13.89" length="0.29" shape="1234.40,1439.30 1234.08,1439.19"/>
    </edge>
    <edge id=":1522690051_0" function="internal">
        <lane id=":1522690051_0_0" index="0" speed="8.34" length="3.62" shape="1204.12,1498.31 1201.53,1495.78"/>
    </edge>
    <edge id=":1522690058_0" function="internal">
        <lane id=":1522690058_0_0" index="0" speed="13.89" length="9.03" shape="1248.89,1493.85 1247.71,1502.81"/>
    </edge>
    <edge id=":167302840_0" function="internal">
        <lane id=":167302840_0_0" index="0" speed="6.08" length="7.76" shape="1235.97,1172.46 1235.86,1171.05 1236.62,1169.73 1238.26,1168.49 1240.77,1167.34"/>
    </edge>
    <edge id=":167302840_1" function="internal">
        <lane id=":167302840_1_0" index="0" speed="3.65" length="4.67" shape="1235.97,1172.46 1236.30,1171.06 1236.90,1170.40 1237.79,1170.49 1238.97,1171.33"/>
    </edge>
    <edge id=":167302840_2" function="internal">
        <lane id=":167302840_2_0" index="0" speed="8.33" length="7.37" shape="1232.76,1166.89 1239.64,1164.34"/>
        <lane id=":167302840_2_1" index="1" speed="8.33" length="7.37" shape="1233.84,1169.91 1240.77,1167.34"/>
    </edge>
    <edge id=":167302840_4" function="internal">
        <lane id=":167302840_4_0" index="0" speed="5.47" length="6.00" shape="1233.84,1169.91 1235.67,1169.45 1237.14,1169.54 1238.24,1170.17 1238.97,1171.33"/>
    </edge>
    <edge id=":1682265969_0" function="internal">
        <lane id=":1682265969_0_0" index="0" speed="13.89" length="3.41" shape="984.07,996.92 980.74,996.19"/>
    </edge>
    <edge id=":1796743678_0" function="internal">
        <lane id=":1796743678_0_0" index="0" speed="4.13" length="5.19" shape="332.15,1068.59 331.75,1068.36 332.17,1067.75 333.39,1066.78 335.42,1065.44"/>
    </edge>
    <edge id=":1796743678_1" function="internal">
        <lane id=":1796743678_1_0" index="0" speed="5.56" length="6.74" shape="332.15,1068.59 331.03,1068.87 330.17,1069.87 329.59,1071.59 329.29,1074.03"/>
    </edge>
    <edge id=":1796743678_2" function="internal">
        <lane id=":1796743678_2_0" index="0" speed="3.65" length="4.67" shape="332.15,1068.59 331.00,1067.72 330.65,1066.89 331.10,1066.12 332.35,1065.40"/>
    </edge>
    <edge id=":1796743678_3" function="internal">
        <lane id=":1796743678_3_0" index="0" speed="5.56" length="11.82" shape="326.09,1073.83 326.69,1070.01 327.93,1067.33 329.81,1065.79 332.35,1065.40"/>
    </edge>
    <edge id=":1796743678_4" function="internal">
        <lane id=":1796743678_4_0" index="0" speed="5.56" length="12.77" shape="326.09,1073.83 326.74,1072.31 328.51,1070.41 331.40,1068.12 335.42,1065.44"/>
    </edge>
    <edge id=":1796743678_5" function="internal">
        <lane id=":1796743678_5_0" index="0" speed="3.65" length="4.67" shape="326.09,1073.83 326.96,1072.68 327.79,1072.33 328.56,1072.78 329.29,1074.03"/>
    </edge>
    <edge id=":2005647245_0" function="internal">
        <lane id=":2005647245_0_0" index="0" speed="13.89" length="0.82" shape="1056.59,1379.93 1056.47,1379.96 1056.39,1379.99 1056.32,1380.03 1056.21,1380.08"/>
        <lane id=":2005647245_0_1" index="1" speed="13.89" length="0.82" shape="1055.77,1376.84 1055.42,1376.93 1055.18,1377.01 1054.95,1377.12 1054.64,1377.30"/>
    </edge>
    <edge id=":2005647291_0" function="internal">
        <lane id=":2005647291_0_0" index="0" speed="13.89" length="12.58" shape="1055.43,1380.53 1052.34,1382.40 1050.42,1384.01 1048.88,1386.02 1046.92,1389.08"/>
        <lane id=":2005647291_0_1" index="1" speed="13.89" length="12.58" shape="1053.30,1378.05 1050.07,1380.02 1048.07,1381.72 1046.47,1383.84 1044.42,1387.05"/>
    </edge>
    <edge id=":21734223_0" function="internal">
        <lane id=":21734223_0_0" index="0" speed="5.55" length="4.92" shape="560.60,1215.79 562.00,1215.52 563.14,1215.04 564.03,1214.34 564.67,1213.42"/>
    </edge>
    <edge id=":21734224_0" function="internal">
        <lane id=":21734224_0_0" index="0" speed="8.33" length="11.09" shape="500.20,1206.58 511.16,1208.30"/>
    </edge>
    <edge id=":21734224_1" function="internal">
        <lane id=":21734224_1_0" index="0" speed="5.55" length="9.03" shape="500.20,1206.58 502.57,1207.30 504.13,1208.61 504.90,1210.50 504.86,1212.97"/>
    </edge>
    <edge id=":21734227_0" function="internal">
        <lane id=":21734227_0_0" index="0" speed="2.78" length="9.89" shape="552.56,1135.61 551.55,1132.86 550.82,1130.98 549.99,1129.15 548.70,1126.52"/>
    </edge>
    <edge id=":21734242_0" function="internal">
        <lane id=":21734242_0_0" index="0" speed="4.17" length="0.38" shape="526.45,1081.59 526.41,1081.49 526.38,1081.42 526.35,1081.34 526.33,1081.23"/>
    </edge>
    <edge id=":21734244_0" function="internal">
        <lane id=":21734244_0_0" index="0" speed="5.04" length="4.80" shape="401.87,1191.08 402.52,1190.61 403.02,1189.35 403.36,1187.88 403.56,1186.77"/>
    </edge>
    <edge id=":21734244_1" function="internal">
        <lane id=":21734244_1_0" index="0" speed="8.33" length="1.54" shape="401.87,1191.08 403.38,1191.37"/>
    </edge>
    <edge id=":21734246_0" function="internal">
        <lane id=":21734246_0_0" index="0" speed="5.56" length="8.40" shape="367.10,1253.22 368.35,1255.37 369.04,1256.93 369.56,1258.56 370.29,1260.95"/>
    </edge>
    <edge id=":21734249_0" function="internal">
        <lane id=":21734249_0_0" index="0" speed="11.11" length="13.83" shape="319.99,1176.12 324.24,1177.17 327.40,1177.99 330.23,1178.61 333.48,1179.10"/>
    </edge>
    <edge id=":21734249_1" function="internal">
        <lane id=":21734249_1_0" index="0" speed="7.50" length="4.49" shape="319.26,1179.23 320.52,1179.59 321.34,1180.02 321.99,1180.69 322.76,1181.77"/>
    </edge>
    <edge id=":21734250_0" function="internal">
        <lane id=":21734250_0_0" index="0" speed="13.89" length="10.52" shape="309.59,1173.38 319.68,1176.05"/>
        <lane id=":21734250_0_1" index="1" speed="13.89" length="10.52" shape="308.69,1176.45 318.94,1179.16"/>
    </edge>
    <edge id=":21734252_0" function="internal">
        <lane id=":21734252_0_0" index="0" speed="13.89" length="7.70" shape="274.47,1243.38 275.47,1245.44 276.14,1246.86 276.90,1248.22 278.15,1250.14"/>
    </edge>
    <edge id=":21734252_1" function="internal">
        <lane id=":21734252_1_0" index="0" speed="11.45" length="7.66" shape="271.72,1246.37 273.89,1247.11 275.45,1247.62 276.75,1248.44 278.15,1250.14"/>
    </edge>
    <edge id=":21734253_0" function="internal">
        <lane id=":21734253_0_0" index="0" speed="2.78" length="5.75" shape="335.83,1335.08 339.08,1339.82"/>
    </edge>
    <edge id=":21734263_0" function="internal">
        <lane id=":21734263_0_0" index="0" speed="5.56" length="11.85" shape="520.41,1054.93 517.50,1043.44"/>
    </edge>
    <edge id=":21734271_0" function="internal">
        <lane id=":21734271_0_0" index="0" speed="3.65" length="4.67" shape="396.56,1024.47 395.16,1024.14 394.51,1023.52 394.61,1022.64 395.46,1021.47"/>
    </edge>
    <edge id=":21734272_0" function="internal">
        <lane id=":21734272_0_0" index="0" speed="9.72" length="17.00" shape="421.21,1016.99 417.28,1016.98 413.03,1018.12 408.82,1019.79 404.99,1021.36"/>
    </edge>
    <edge id=":21734272_1" function="internal">
        <lane id=":21734272_1_0" index="0" speed="13.89" length="18.12" shape="421.21,1016.99 417.06,1016.13 412.34,1015.14 407.64,1014.05 403.57,1012.88"/>
    </edge>
    <edge id=":21734272_2" function="internal">
        <lane id=":21734272_2_0" index="0" speed="5.37" length="9.74" shape="403.88,1018.35 406.69,1016.97 407.58,1015.59 406.54,1014.23 403.57,1012.88"/>
    </edge>
    <edge id=":21734272_3" function="internal">
        <lane id=":21734272_3_0" index="0" speed="3.65" length="1.44" shape="403.88,1018.35 405.29,1018.69"/>
    </edge>
    <edge id=":21734272_4" function="internal">
        <lane id=":21734272_4_0" index="0" speed="3.65" length="3.23" shape="405.29,1018.69 405.94,1019.30 405.84,1020.19 404.99,1021.36"/>
    </edge>
    <edge id=":21734280_0" function="internal">
        <lane id=":21734280_0_0" index="0" speed="2.78" length="8.21" shape="639.34,1090.03 639.58,1087.59 639.94,1085.89 640.00,1084.23 639.38,1081.96"/>
    </edge>
    <edge id=":21734295_0" function="internal">
        <lane id=":21734295_0_0" index="0" speed="8.33" length="14.05" shape="791.65,1058.80 801.61,1068.70"/>
    </edge>
    <edge id=":21734298_0" function="internal">
        <lane id=":21734298_0_0" index="0" speed="8.33" length="10.75" shape="773.93,1040.72 781.43,1048.41"/>
    </edge>
    <edge id=":21734301_0" function="internal">
        <lane id=":21734301_0_0" index="0" speed="8.33" length="6.22" shape="851.64,1117.38 856.26,1121.53"/>
    </edge>
    <edge id=":21734304_0" function="internal">
        <lane id=":21734304_0_0" index="0" speed="8.33" length="10.02" shape="879.86,1048.27 881.01,1058.22"/>
    </edge>
    <edge id=":21734305_0" function="internal">
        <lane id=":21734305_0_0" index="0" speed="8.33" length="0.10" shape="878.68,1033.09 878.62,1033.15"/>
    </edge>
    <edge id=":21734306_0" function="internal">
        <lane id=":21734306_0_0" index="0" speed="3.93" length="2.15" shape="882.24,984.34 881.71,984.53 881.32,984.86 881.08,985.30 880.99,985.86"/>
    </edge>
    <edge id=":21954006_0" function="internal">
        <lane id=":21954006_0_0" index="0" speed="12.07" length="10.79" shape="309.64,1004.88 311.12,1002.12 312.02,999.97 312.30,997.73 311.92,994.68"/>
    </edge>
    <edge id=":21960421_0" function="internal">
        <lane id=":21960421_0_0" index="0" speed="5.56" length="9.95" width="2.00" shape="741.00,1424.99 739.57,1426.03 738.50,1427.85 737.80,1430.44 737.47,1433.81"/>
    </edge>
    <edge id=":21960421_1" function="internal">
        <lane id=":21960421_1_0" index="0" speed="5.56" length="11.88" shape="741.00,1424.99 738.00,1426.26 735.58,1427.41 733.21,1428.65 730.35,1430.21"/>
    </edge>
    <edge id=":21960421_2" function="internal">
        <lane id=":21960421_2_0" index="0" speed="4.17" length="7.32" shape="741.00,1424.99 738.43,1425.86 736.46,1426.14 735.08,1425.82 734.31,1424.91"/>
    </edge>
    <edge id=":21960421_3" function="internal">
        <lane id=":21960421_3_0" index="0" speed="4.17" length="10.24" width="2.00" shape="737.28,1423.74 738.11,1426.57 738.14,1428.64 737.78,1430.78 737.47,1433.81"/>
    </edge>
    <edge id=":21960421_4" function="internal">
        <lane id=":21960421_4_0" index="0" speed="4.17" length="9.93" shape="737.28,1423.74 737.18,1424.97 735.98,1426.46 733.71,1428.21 730.35,1430.21"/>
    </edge>
    <edge id=":21960421_5" function="internal">
        <lane id=":21960421_5_0" index="0" speed="2.78" length="4.67" shape="737.28,1423.74 736.98,1425.15 736.38,1425.81 735.49,1425.74 734.31,1424.91"/>
    </edge>
    <edge id=":21960421_6" function="internal">
        <lane id=":21960421_6_0" index="0" speed="5.31" length="8.54" shape="735.47,1433.73 735.24,1431.09 734.31,1429.62 732.68,1429.33 730.35,1430.21"/>
    </edge>
    <edge id=":21960421_7" function="internal">
        <lane id=":21960421_7_0" index="0" speed="4.17" length="9.01" shape="735.47,1433.73 735.59,1431.06 735.56,1429.21 735.20,1427.41 734.31,1424.91"/>
    </edge>
    <edge id=":21960421_8" function="internal">
        <lane id=":21960421_8_0" index="0" speed="2.89" length="2.92" width="2.00" shape="735.47,1433.73 736.00,1433.00 736.51,1432.77 737.00,1433.04 737.47,1433.81"/>
    </edge>