<?xml version="1.0" encoding="UTF-8"?>

<!-- generated on 2026-02-17 11:54:12 by Eclipse SUMO polyconvert Version 1.22.0
<polyconvertConfiguration xmlns:xsi="http://www.w3.org/2001/XMLSchema-instance" xsi:noNamespaceSchemaLocation="http://sumo.dlr.de/xsd/polyconvertConfiguration.xsd">

    <input>
        <net-file value="madrid.net.xml"/>
        <osm-files value="map.osm"/>
    </input>

    <output>
        <output-file value="madrid.poly.xml"/>
    </output>

</polyconvertConfiguration>
-->

<additional xmlns:xsi="http://www.w3.org/2001/XMLSchema-instance" xsi:noNamespaceSchemaLocation="http://sumo.dlr.de/xsd/additional_file.xsd">
    <location netOffset="-439617.44,-4473008.86" convBoundary="-0.00,0.00,1702.05,5550.90" origBoundary="-3.711811,40.405562,-3.691582,40.455568" projParameter="+proj=utm +zone=30 +ellps=WGS84 +datum=WGS84 +units=m +no_defs"/>

    <poly id="1003795542" type="building" color="255,230,230" fill="1" layer="-1.00" shape="484.430244,1567.760876 486.415407,1570.930907 488.798525,1568.691732 491.175940,1571.048281 493.372657,1567.778234 490.080728,1566.705567 491.114926,1563.411505 487.323824,1563.575003 487.704702,1566.646847 484.430244,1567.760876"/>
    <poly id="1003795542#1" type="tourism" color="207,245,201" fill="1" layer="-2.00" shape="484.430244,1567.760876 486.415407,1570.930907 488.798525,1568.691732 491.175940,1571.048281 493.372657,1567.778234 490.080728,1566.705567 491.114926,1563.411505 487.323824,1563.575003 487.704702,1566.646847 484.430244,1567.760876"/>
    <poly id="1022094161" type="amenity" color="237,199,199" fill="1" layer="-1.00" shape="1133.920349,1068.143037 1135.461660,1048.449410 1141.411389,1050.844539 1140.142294,1080.293482 1136.486422,1080.422276 1136.638514,1076.047419 1135.747416,1076.021159 1135.897490,1071.391003 1136.788589,1071.417263 1138.476582,1071.359522 1138.580250,1068.372629 1133.920349,1068.143037"/>
    <poly id="1022094161#1" type="building" color="255,230,230" fill="1" layer="-1.00" shape="1133.920349,1068.143037 1135.461660,1048.449410 1141.411389,1050.844539 1140.142294,1080.293482 1136.486422,1080.422276 1136.638514,1076.047419 1135.747416,1076.021159 1135.897490,1071.391003 1136.788589,1071.417263 1138.476582,1071.359522 1138.580250,1068.372629 1133.920349,1068.143037"/>
    <poly id="102865405" type="building" color="255,230,230" fill="1" layer="-1.00" shape="786.230335,1066.480652 781.257210,1066.342574 781.434093,1062.977669 782.784085,1059.892055 785.088377,1056.243824 788.225445,1059.160562 786.542614,1063.070268 786.230335,1066.480652"/>
    <poly id="102865410" type="building" color="255,230,230" fill="1" layer="-1.00" shape="724.368677,1221.116397 724.606353,1212.600298 724.813892,1204.561768 729.635364,1204.845323 735.840433,1205.206678 743.785604,1205.665202 743.797627,1217.842530 739.308100,1217.689534 737.950221,1217.644834 733.426669,1217.481011 732.985325,1217.462321 728.792825,1217.318069 728.536960,1221.416248 724.368677,1221.116397"/>
    <poly id="102865411" type="building" color="255,230,230" fill="1" layer="-1.00" shape="802.673301,1144.376484 818.099024,1143.399164 818.012083,1147.407191 823.989554,1146.882376 825.091776,1146.784814 825.837845,1146.712284 825.990696,1148.864597 824.564668,1148.787120 824.626488,1151.228773 823.719311,1151.313685 818.213335,1151.379628 818.344315,1156.118568 821.898515,1156.012627 822.333925,1167.032120 803.349734,1167.571483 803.211495,1162.988010 803.024236,1156.506714 802.673301,1144.376484"/>
    <poly id="1028758220" type="building" color="255,230,230" fill="1" layer="-1.00" shape="471.399032,1104.922664 474.389045,1104.288235 474.997243,1107.136247 472.015715,1107.770608 471.399032,1104.922664"/>
    <poly id="1050758585" type="building" color="255,230,230" fill="1" layer="-1.00" shape="1176.358053,1298.801173 1165.151784,1297.935026 1156.108553,1297.007405 1155.869514,1301.116534 1158.968587,1301.402869 1157.902993,1308.282590 1155.449838,1308.135460 1154.619367,1320.075221 1164.105046,1321.165855 1168.002907,1321.612394 1173.318625,1322.180945 1176.358053,1298.801173"/>
    <poly id="1050758586" type="building" color="255,230,230" fill="1" layer="-1.00" shape="743.527684,1173.242226 743.798260,1177.391720 740.743392,1177.338317 737.909197,1177.294260 737.807389,1177.295070 734.209366,1177.223789 733.309883,1177.208744 728.795496,1177.133656 725.520043,1177.082015 725.634506,1173.340181 725.697089,1170.542317 726.782074,1170.411576 733.368518,1169.648729 737.971464,1169.123679 739.955051,1168.896986 743.608581,1168.479399 743.527684,1173.242226"/>
    <poly id="1050758587" type="building" color="255,230,230" fill="1" layer="-1.00" shape="659.553199,1116.453674 658.096126,1112.480143 656.537332,1108.518524 662.394806,1106.773463 685.723540,1103.068766 686.622062,1107.224359 683.912186,1107.878674 683.512018,1106.638587 680.937533,1107.247422 681.320822,1108.498744 680.533479,1108.715926 678.882349,1109.139799 679.294272,1110.790517 669.000496,1112.681904 664.713468,1114.525457 659.553199,1116.453674"/>
    <poly id="1051365755" type="building" color="255,230,230" fill="1" layer="-1.00" shape="660.887090,1078.334480 643.570290,1084.777614 642.910385,1085.015986 639.799135,1077.891952 636.427252,1070.004050 647.879600,1066.560397 646.128209,1060.790907 649.438175,1059.843181 648.759077,1057.672862 653.228459,1056.349578 654.013521,1059.040785 652.252883,1059.565441 652.521640,1060.284843 654.222977,1059.771759 655.697299,1064.844117 657.398813,1064.353234 659.860223,1072.981041 659.479321,1073.095082 660.887090,1078.334480"/>
    <poly id="1051365755#1" type="shop" color="237,199,255" fill="1" layer="-1.00" shape="660.887090,1078.334480 643.570290,1084.777614 642.910385,1085.015986 639.799135,1077.891952 636.427252,1070.004050 647.879600,1066.560397 646.128209,1060.790907 649.438175,1059.843181 648.759077,1057.672862 653.228459,1056.349578 654.013521,1059.040785 652.252883,1059.565441 652.521640,1060.284843 654.222977,1059.771759 655.697299,1064.844117 657.398813,1064.353234 659.860223,1072.981041 659.479321,1073.095082 660.887090,1078.334480"/>
    <poly id="112316375" type="building" color="255,230,230" fill="1" layer="-1.00" shape="528.167566,1590.278912 526.883625,1582.485391 531.527667,1574.389222 533.711114,1573.705749 537.185012,1567.816860 559.996657,1529.270862 564.399969,1521.831576 567.547216,1516.467041 569.305387,1517.773992 570.201926,1518.488382 574.215098,1521.697759 575.308354,1522.610392 573.991301,1524.485812 572.625117,1526.583638 575.233685,1528.139122 578.745855,1530.231330 582.233268,1526.029657 589.603296,1517.179138 592.277280,1514.171730 593.690050,1512.595267 595.094337,1511.018873 595.359809,1511.327574 595.108221,1511.695903 596.720115,1518.065933 610.121114,1527.139322 611.058134,1543.571942 596.335641,1551.770633 595.235590,1551.068964 592.464960,1549.403760 576.602032,1576.294016 576.508004,1576.205961 574.037918,1573.927829 573.764495,1573.685796 568.073511,1568.602693 562.901948,1572.262779 562.184829,1572.768032 556.962813,1576.484028 554.811549,1578.010888 555.136666,1582.603971 555.761605,1590.746877 551.905483,1591.266083 543.575622,1592.520344 540.084294,1593.036644 535.160752,1593.753091 530.160946,1594.481252 530.046761,1593.993734 530.818233,1593.920970 530.410707,1591.759593 528.167566,1590.278912"/>
    <poly id="112316375#1" type="shop" color="237,199,255" fill="1" layer="-1.00" shape="528.167566,1590.278912 526.883625,1582.485391 531.527667,1574.389222 533.711114,1573.705749 537.185012,1567.816860 559.996657,1529.270862 564.399969,1521.831576 567.547216,1516.467041 569.305387,1517.773992 570.201926,1518.488382 574.215098,1521.697759 575.308354,1522.610392 573.991301,1524.485812 572.625117,1526.583638 575.233685,1528.139122 578.745855,1530.231330 582.233268,1526.029657 589.603296,1517.179138 592.277280,1514.171730 593.690050,1512.595267 595.094337,1511.018873 595.359809,1511.327574 595.108221,1511.695903 596.720115,1518.065933 610.121114,1527.139322 611.058134,1543.571942 596.335641,1551.770633 595.235590,1551.068964 592.464960,1549.403760 576.602032,1576.294016 576.508004,1576.205961 574.037918,1573.927829 573.764495,1573.685796 568.073511,1568.602693 562.901948,1572.262779 562.184829,1572.768032 556.962813,1576.484028 554.811549,1578.010888 555.136666,1582.603971 555.761605,1590.746877 551.905483,1591.266083 543.575622,1592.520344 540.084294,1593.036644 535.160752,1593.753091 530.160946,1594.481252 530.046761,1593.993734 530.818233,1593.920970 530.410707,1591.759593 528.167566,1590.278912"/>
    <poly id="1124392939" type="building" color="255,230,230" fill="1" layer="-1.00" shape="1144.305604,1216.332329 1144.799365,1217.616103 1146.118919,1217.106148 1145.616674,1215.822441 1144.305604,1216.332329"/>
    <poly id="1124392939#1" type="military" color="153,153,92" fill="1" layer="-2.00" shape="1144.305604,1216.332329 1144.799365,1217.616103 1146.118919,1217.106148 1145.616674,1215.822441 1144.305604,1216.332329"/>
    <poly id="115982369" type="building" color="255,230,230" fill="1" layer="-1.00" shape="884.996925,1357.887699 905.829871,1365.859172 913.775212,1344.971306 893.128862,1336.998330 884.996925,1357.887699"/>
    <poly id="115982385" type="building" color="255,230,230" fill="1" layer="-1.00" shape="851.976393,1345.139863 872.827083,1353.199910 880.764568,1332.400875 859.982494,1324.440167 851.976393,1345.139863"/>
    <poly id="115982388" type="building" color="255,230,230" fill="1" layer="-1.00" shape="847.599414,1381.584786 884.083353,1395.648292 891.925357,1375.649273 880.410916,1371.222687 879.198359,1374.518106 865.846295,1369.462290 867.057790,1366.033668 855.279351,1361.487109 847.599414,1381.584786"/>
    <poly id="1169295641" type="amenity" color="237,199,199" fill="1" layer="-1.00" shape="1194.596896,1099.644747 1194.350825,1097.493164 1199.858050,1096.506135 1199.861029,1096.883533 1200.954516,1096.752794 1201.200585,1098.904377 1194.596896,1099.644747"/>
    <poly id="1169295641#1" type="building" color="255,230,230" fill="1" layer="-1.00" shape="1194.596896,1099.644747 1194.350825,1097.493164 1199.858050,1096.506135 1199.861029,1096.883533 1200.954516,1096.752794 1201.200585,1098.904377 1194.596896,1099.644747"/>
    <poly id="1169295642" type="amenity" color="237,199,199" fill="1" layer="-1.00" shape="1193.388360,1091.650722 1192.765362,1086.893464 1192.988196,1085.026796 1194.174396,1084.817620 1199.332600,1086.908224 1199.252052,1087.452792 1198.737412,1087.823175 1198.325896,1088.359255 1197.949719,1089.072666 1197.776284,1089.673470 1197.850115,1090.427731 1197.702658,1091.094933 1193.388360,1091.650722"/>
    <poly id="1169295642#1" type="building" color="255,230,230" fill="1" layer="-1.00" shape="1193.388360,1091.650722 1192.765362,1086.893464 1192.988196,1085.026796 1194.174396,1084.817620 1199.332600,1086.908224 1199.252052,1087.452792 1198.737412,1087.823175 1198.325896,1088.359255 1197.949719,1089.072666 1197.776284,1089.673470 1197.850115,1090.427731 1197.702658,1091.094933 1193.388360,1091.650722"/>
    <poly id="1171926569" type="building" color="255,230,230" fill="1" layer="-1.00" shape="653.356681,1109.720533 649.052352,1098.742970 643.570290,1084.777614 660.887090,1078.334480 664.499032,1076.951429 667.578419,1075.816836 669.067473,1075.283246 669.912804,1079.150643 687.031676,1074.485252 688.710742,1079.700294 699.170628,1077.352487 699.134549,1093.071307 699.133042,1096.079598 699.113681,1101.108351 685.723540,1103.068766 662.394806,1106.773463 656.537332,1108.518524 653.356681,1109.720533"/>
    <poly id="1171926569#1" type="tourism" color="207,245,201" fill="1" layer="-2.00" shape="653.356681,1109.720533 649.052352,1098.742970 643.570290,1084.777614 660.887090,1078.334480 664.499032,1076.951429 667.578419,1075.816836 669.067473,1075.283246 669.912804,1079.150643 687.031676,1074.485252 688.710742,1079.700294 699.170628,1077.352487 699.134549,1093.071307 699.133042,1096.079598 699.113681,1101.108351 685.723540,1103.068766 662.394806,1106.773463 656.537332,1108.518524 653.356681,1109.720533"/>
    <poly id="1221366184" type="amenity" color="237,199,199" fill="1" layer="-1.00" shape="651.594363,1241.022105 650.169595,1242.165725 652.971529,1245.617909 654.396208,1244.463190 651.594363,1241.022105"/>
    <poly id="1221366184#1" type="historic" color="128,255,128" fill="1" layer="-1.00" shape="651.594363,1241.022105 650.169595,1242.165725 652.971529,1245.617909 654.396208,1244.463190 651.594363,1241.022105"/>
    <poly id="1221366184#2" type="water" color="181,209,209" fill="1" layer="-4.00" shape="651.594363,1241.022105 650.169595,1242.165725 652.971529,1245.617909 654.396208,1244.463190 651.594363,1241.022105"/>
    <poly id="1221366732" type="tourism" color="207,245,201" fill="1" layer="-2.00" shape="772.310471,1272.874854 772.701548,1270.840324 774.605036,1271.213712 774.213870,1273.237142 772.310471,1272.874854"/>
    <poly id="1221372149" type="historic" color="128,255,128" fill="1" layer="-1.00" shape="364.539079,1098.040171 364.807188,1093.375744 372.022339,1093.773116 371.762799,1098.448575 364.539079,1098.040171"/>
    <poly id="1221372149#1" type="tourism" color="207,245,201" fill="1" layer="-2.00" shape="364.539079,1098.040171 364.807188,1093.375744 372.022339,1093.773116 371.762799,1098.448575 364.539079,1098.040171"/>
    <poly id="1221373677" type="amenity" color="237,199,199" fill="1" layer="-1.00" shape="625.017429,1145.845898 625.224939,1146.332673 625.204912,1150.206964 625.056269,1150.718779 624.745720,1151.143079 624.306938,1151.446295 623.790561,1151.594719 623.255800,1151.565680 622.787584,1151.369600 622.394574,1151.028612 622.136514,1150.586642 622.039207,1150.087888 622.144251,1146.235121 622.369693,1145.778197 622.731588,1145.408990 623.187870,1145.172239 623.696383,1145.101582 624.197650,1145.186392 624.666397,1145.449072 625.017429,1145.845898"/>
    <poly id="1221373677#1" type="water" color="181,209,209" fill="1" layer="-4.00" shape="625.017429,1145.845898 625.224939,1146.332673 625.204912,1150.206964 625.056269,1150.718779 624.745720,1151.143079 624.306938,1151.446295 623.790561,1151.594719 623.255800,1151.565680 622.787584,1151.369600 622.394574,1151.028612 622.136514,1150.586642 622.039207,1150.087888 622.144251,1146.235121 622.369693,1145.778197 622.731588,1145.408990 623.187870,1145.172239 623.696383,1145.101582 624.197650,1145.186392 624.666397,1145.449072 625.017429,1145.845898"/>
    <poly id="1226955267" type="man_made" color="255,230,230" fill="0" layer="-1.00" shape="659.571826,1294.530354 679.988864,1300.295488"/>
    <poly id="1226955267#1" type="tourism" color="207,245,201" fill="0" layer="-2.00" shape="659.571826,1294.530354 679.988864,1300.295488"/>
    <poly id="1227189626" type="amenity" color="237,199,199" fill="1" layer="-1.00" shape="662.693055,1240.078937 663.575037,1241.093172 664.196845,1242.464701 664.447659,1244.127803 664.069510,1245.651606 663.138579,1247.013302 662.103188,1248.042811 660.624332,1248.787235 658.686814,1249.468709 656.594197,1249.851702 654.303708,1249.892151 652.154086,1249.509653 650.188988,1248.859270 648.570228,1248.017417 647.085884,1247.007983 646.039875,1245.639835 645.457830,1243.934970 645.495732,1242.302871 645.867427,1241.034433 646.763801,1239.595306 647.960210,1238.542311 649.692877,1237.707056 651.962157,1237.133943 654.455469,1236.991971 657.122174,1237.314847 659.504138,1238.106220 661.225502,1239.047164 662.693055,1240.078937"/>
    <poly id="1227189626#1" type="water" color="181,209,209" fill="1" layer="-4.00" shape="662.693055,1240.078937 663.575037,1241.093172 664.196845,1242.464701 664.447659,1244.127803 664.069510,1245.651606 663.138579,1247.013302 662.103188,1248.042811 660.624332,1248.787235 658.686814,1249.468709 656.594197,1249.851702 654.303708,1249.892151 652.154086,1249.509653 650.188988,1248.859270 648.570228,1248.017417 647.085884,1247.007983 646.039875,1245.639835 645.457830,1243.934970 645.495732,1242.302871 645.867427,1241.034433 646.763801,1239.595306 647.960210,1238.542311 649.692877,1237.707056 651.962157,1237.133943 654.455469,1236.991971 657.122174,1237.314847 659.504138,1238.106220 661.225502,1239.047164 662.693055,1240.078937"/>
    <poly id="1288887424" type="building" color="255,230,230" fill="1" layer="-1.00" shape="278.671609,1314.669443 283.324898,1314.088206 282.548865,1307.245310 277.853775,1307.904588 278.077174,1309.312583 279.081565,1309.715256 279.408165,1312.354598 279.040124,1313.012488 278.446875,1313.094949 278.671609,1314.669443"/>
    <poly id="1288887424#1" type="man_made" color="255,230,230" fill="1" layer="-1.00" shape="278.671609,1314.669443 283.324898,1314.088206 282.548865,1307.245310 277.853775,1307.904588 278.077174,1309.312583 279.081565,1309.715256 279.408165,1312.354598 279.040124,1313.012488 278.446875,1313.094949 278.671609,1314.669443"/>
    <poly id="1288887425" type="building" color="255,230,230" fill="1" layer="-1.00" shape="281.960314,1289.921875 288.357165,1299.394975 292.408260,1296.720543 286.394433,1287.399778 281.960314,1289.921875"/>
    <poly id="1288887425#1" type="man_made" color="255,230,230" fill="1" layer="-1.00" shape="281.960314,1289.921875 288.357165,1299.394975 292.408260,1296.720543 286.394433,1287.399778 281.960314,1289.921875"/>
    <poly id="1288887426" type="building" color="255,230,230" fill="1" layer="-1.00" shape="273.576404,1287.646848 277.842001,1285.270407 279.592563,1287.731823 274.054708,1291.217431 273.576404,1287.646848"/>
    <poly id="1288887426#1" type="man_made" color="255,230,230" fill="1" layer="-1.00" shape="273.576404,1287.646848 277.842001,1285.270407 279.592563,1287.731823 274.054708,1291.217431 273.576404,1287.646848"/>
    <poly id="1288887427" type="building" color="255,230,230" fill="1" layer="-1.00" shape="274.403315,1279.669934 279.491857,1277.286895 278.925719,1275.459823 274.824544,1277.180006 273.824331,1277.299032 274.403315,1279.669934"/>
    <poly id="1288887427#1" type="man_made" color="255,230,230" fill="1" layer="-1.00" shape="274.403315,1279.669934 279.491857,1277.286895 278.925719,1275.459823 274.824544,1277.180006 273.824331,1277.299032 274.403315,1279.669934"/>
    <poly id="1289077478" type="leisure" color="207,245,201" fill="1" layer="-2.00" shape="1001.312693,1319.800478 1003.796267,1319.503290 1010.070142,1330.709664 1007.619364,1330.862282 1001.312693,1319.800478"/>
    <poly id="1289077479" type="leisure" color="207,245,201" fill="1" layer="-2.00" shape="982.258210,1338.189806 994.410509,1342.811307 994.358283,1340.502784 982.239917,1335.881014 982.258210,1338.189806"/>
    <poly id="1289077482" type="building" color="255,230,230" fill="1" layer="-1.00" shape="886.974161,1238.195815 932.582784,1234.481613 933.239976,1236.041594 933.714251,1237.003590 934.351306,1238.164107 935.159007,1239.445379 936.051284,1240.692678 937.173596,1242.060260 938.226011,1243.173081 939.533825,1244.394885 940.780578,1245.406260 942.410165,1246.547808 943.740085,1247.347611 945.222452,1248.112905 947.222955,1248.951795 948.958343,1249.526372 951.049617,1250.042625 952.612862,1250.307749 961.302262,1265.457871 990.924395,1317.229712 990.771380,1318.263285 991.138032,1318.493494 991.462178,1318.712939 991.906505,1319.109043 992.335270,1319.682880 992.637482,1320.346525 992.804215,1321.044546 992.809403,1321.699443 992.704213,1322.344115 992.488381,1322.945260 992.186743,1323.424978 991.817322,1323.916333 991.277697,1324.342433 990.771040,1324.646164 990.094354,1324.906840 989.305795,1324.968591 988.626382,1324.885168 988.014138,1324.712408 987.426201,1324.395147 987.127419,1324.164401 986.879804,1323.966551 986.528800,1323.569708 985.689866,1323.698462 937.736285,1309.814203 910.200159,1301.795907 894.782235,1297.300358 867.586869,1289.468224 860.877826,1287.601073 854.415342,1285.798574 854.522659,1284.354637 854.715014,1281.866562 855.523858,1271.536527 859.078597,1272.573966 860.706306,1267.066217 861.266686,1267.117271 861.372330,1265.462435 857.551390,1265.093148 857.348082,1267.270491 855.837150,1267.182582 856.059741,1264.228039 856.225300,1262.639331 860.438000,1263.194218 868.820802,1264.282136 870.358067,1264.480845 881.696620,1265.967140 884.159778,1266.302813 884.522201,1262.792129 886.645054,1241.628530 886.974161,1238.195815"/>
    <poly id="1289077483" type="building" color="255,230,230" fill="1" layer="-1.00" shape="917.812032,1284.851427 920.016863,1279.361315 920.969942,1277.577651 922.844984,1274.365790 925.252842,1270.938792 927.926433,1267.853808 930.940792,1264.943732 936.769915,1260.701462 937.008908,1259.811514 933.624856,1257.829129 931.766258,1257.766163 930.103583,1257.801549 928.611995,1258.013190 927.120935,1258.291430 925.276279,1258.916596 923.644162,1259.595579 921.474004,1260.900467 920.098782,1261.877132 918.885901,1262.996817 917.682471,1264.238535 916.557247,1265.712747 915.493788,1267.486187 914.891662,1268.589928 914.268927,1270.304369 913.780615,1271.851234 913.434768,1273.174955 913.205552,1275.296999 913.189402,1277.539460 913.400469,1279.547004 913.630472,1280.732950 915.166292,1281.819732 917.812032,1284.851427"/>
    <poly id="1289077483#1" type="man_made" color="255,230,230" fill="1" layer="-1.00" shape="917.812032,1284.851427 920.016863,1279.361315 920.969942,1277.577651 922.844984,1274.365790 925.252842,1270.938792 927.926433,1267.853808 930.940792,1264.943732 936.769915,1260.701462 937.008908,1259.811514 933.624856,1257.829129 931.766258,1257.766163 930.103583,1257.801549 928.611995,1258.013190 927.120935,1258.291430 925.276279,1258.916596 923.644162,1259.595579 921.474004,1260.900467 920.098782,1261.877132 918.885901,1262.996817 917.682471,1264.238535 916.557247,1265.712747 915.493788,1267.486187 914.891662,1268.589928 914.268927,1270.304369 913.780615,1271.851234 913.434768,1273.174955 913.205552,1275.296999 913.189402,1277.539460 913.400469,1279.547004 913.630472,1280.732950 915.166292,1281.819732 917.812032,1284.851427"/>
    <poly id="128955963" type="building" color="255,230,230" fill="1" layer="-1.00" shape="1031.541834,1110.713426 1052.237576,1112.003807 1052.354911,1110.748505 1053.022815,1106.158652 1053.677491,1100.969467 1031.609490,1099.967461 1031.588422,1102.665086 1031.565938,1107.327537 1031.541834,1110.713426"/>
    <poly id="129357893" type="building" color="255,230,230" fill="1" layer="-1.00" shape="1029.078110,1188.548495 1028.848268,1195.954450 1028.301052,1213.642121 1030.479231,1215.489787 1032.387424,1215.385875 1039.256900,1215.009578 1039.292071,1205.518242 1040.148427,1205.444860 1040.160348,1203.735265 1040.467042,1187.814503 1029.078110,1188.548495"/>
    <poly id="129357894" type="building" color="255,230,230" fill="1" layer="-1.00" shape="1030.448083,1144.035138 1058.681407,1144.677533 1058.700115,1147.041824 1061.866074,1147.194384 1063.884786,1153.550185 1066.795125,1163.218026 1063.647195,1163.198530 1063.601279,1165.974056 1060.522100,1166.065023 1055.296900,1166.228476 1052.666849,1166.249289 1029.709309,1166.464302 1029.811174,1163.255407 1029.921611,1160.057545 1030.133914,1153.650789 1030.346217,1147.244032 1030.448083,1144.035138"/>
    <poly id="129357895" type="building" color="255,230,230" fill="1" layer="-1.00" shape="1029.078110,1188.548495 1040.467042,1187.814503 1042.247806,1187.689401 1051.940377,1187.024356 1052.813791,1186.961941 1052.797855,1183.876086 1055.316291,1183.689647 1055.295252,1169.236766 1052.725468,1169.368108 1052.666849,1166.249289 1029.709309,1166.464302 1029.563698,1171.649459 1029.377728,1178.167014 1029.211850,1184.007270 1029.078110,1188.548495"/>
    <poly id="129357896" type="building" color="255,230,230" fill="1" layer="-1.00" shape="1032.090233,1088.885206 1032.205730,1085.254380 1032.294281,1081.435055 1032.471384,1073.796406 1032.648487,1066.157757 1045.242040,1066.446600 1044.044429,1078.078458 1051.555525,1078.352035 1051.895066,1078.371549 1051.003330,1087.914064 1050.792617,1090.235767 1032.090233,1088.885206"/>
    <poly id="129357897" type="building" color="255,230,230" fill="1" layer="-1.00" shape="1030.448083,1144.035138 1030.518209,1141.104011 1030.586666,1137.961985 1030.661849,1134.597892 1030.719226,1132.199697 1057.530257,1133.230771 1058.705996,1137.062293 1056.959156,1137.187122 1057.272156,1141.358489 1059.874743,1141.082581 1060.456350,1142.743076 1061.091583,1144.747268 1058.681407,1144.677533 1030.448083,1144.035138"/>
    <poly id="129357898" type="building" color="255,230,230" fill="1" layer="-1.00" shape="1031.190689,1121.017610 1031.091243,1123.460540 1030.962606,1126.503137 1030.826276,1129.645700 1030.719226,1132.199697 1057.530257,1133.230771 1056.998939,1131.492173 1056.572152,1130.096868 1053.820851,1129.807822 1054.248249,1125.919212 1055.496111,1125.998143 1054.646805,1122.674668 1031.190689,1121.017610"/>
    <poly id="129357899" type="building" color="255,230,230" fill="1" layer="-1.00" shape="1031.541834,1110.713426 1031.384132,1115.443552 1031.280596,1118.441547 1031.190689,1121.017610 1054.646805,1122.674668 1054.602979,1122.497405 1054.000185,1120.304246 1053.833893,1119.661724 1053.528290,1119.641941 1053.171219,1118.479199 1050.336391,1118.357324 1050.509477,1115.569691 1052.265421,1115.522493 1052.237576,1112.003807 1031.541834,1110.713426"/>
    <poly id="129357900" type="building" color="255,230,230" fill="1" layer="-1.00" shape="1031.609490,1099.967461 1031.740588,1097.235663 1031.913980,1093.415667 1032.090233,1088.885206 1050.792617,1090.235767 1052.940330,1090.374180 1053.831514,1090.411531 1055.842602,1090.440020 1055.495176,1092.640697 1053.226139,1092.181325 1052.436031,1096.339220 1054.549278,1096.411303 1053.677491,1100.969467 1031.609490,1099.967461"/>
    <poly id="129446580" type="building" color="255,230,230" fill="1" layer="-1.00" shape="979.633019,1013.283390 989.460242,1014.593117 989.892585,1014.545290 990.209795,1011.745413 990.242765,1011.623045 991.152158,1011.815653 991.119188,1011.938021 990.612205,1015.416541 992.939076,1015.675625 993.404871,1012.352841 994.849824,1012.674415 994.314748,1015.820137 1001.474144,1016.673685 1001.894532,1012.973839 1005.709305,1013.620767 1006.746497,1007.451692 981.241128,1002.070093 980.910507,1002.106015 980.709084,1002.385127 980.601340,1002.707899 979.633019,1013.283390"/>
    <poly id="129446581" type="building" color="255,230,230" fill="1" layer="-1.00" shape="1033.673668,1019.882136 1046.964534,1021.430937 1047.781081,1015.252514 1044.389030,1014.413509 1036.720723,1012.509387 1033.898254,1011.810186 1033.745731,1017.195208 1033.673668,1019.882136"/>
    <poly id="129446584" type="building" color="255,230,230" fill="1" layer="-1.00" shape="1016.469141,1059.847473 1027.196367,1060.173265 1027.351690,1045.496977 1018.080118,1044.704531 1016.469141,1059.847473"/>
    <poly id="129446585" type="building" color="255,230,230" fill="1" layer="-1.00" shape="1001.159694,1144.089445 1024.799806,1144.346270 1025.072863,1123.108563 1001.871219,1122.515244 1001.159694,1144.089445"/>
    <poly id="129446588" type="building" color="255,230,230" fill="1" layer="-1.00" shape="1012.724155,1105.511901 1012.157333,1113.220242 1025.211498,1113.827321 1025.533964,1106.331829 1020.857904,1106.202341 1020.618714,1109.212511 1017.402097,1109.093672 1017.690872,1105.916599 1016.358252,1105.849446 1014.099986,1105.678617 1012.724155,1105.511901"/>
    <poly id="129446590" type="building" color="255,230,230" fill="1" layer="-1.00" shape="1023.412379,1186.650738 1023.802907,1186.680948 1024.573344,1167.182103 1005.263854,1167.357209 1005.209906,1185.185284 1013.755595,1185.406224 1013.625916,1186.173196 1019.813575,1186.479420 1023.412379,1186.650738"/>
    <poly id="129446592" type="building" color="255,230,230" fill="1" layer="-1.00" shape="1010.822583,1098.955374 1025.828383,1099.580302 1026.187783,1090.319515 1016.961586,1089.893034 1013.125620,1089.779100 1011.258937,1089.771681 1010.822583,1098.955374"/>
    <poly id="129446593" type="building" color="255,230,230" fill="1" layer="-1.00" shape="1046.844750,981.636061 1046.863995,989.428564 1051.054629,990.394459 1048.004453,1007.025166 1038.704358,1004.778736 1033.569697,1003.531703 1034.413584,979.370012 1035.030301,961.881610 1040.715200,961.892117 1054.978396,961.923551 1052.979123,981.620819 1046.844750,981.636061"/>
    <poly id="129446593#1" type="tourism" color="207,245,201" fill="1" layer="-2.00" shape="1046.844750,981.636061 1046.863995,989.428564 1051.054629,990.394459 1048.004453,1007.025166 1038.704358,1004.778736 1033.569697,1003.531703 1034.413584,979.370012 1035.030301,961.881610 1040.715200,961.892117 1054.978396,961.923551 1052.979123,981.620819 1046.844750,981.636061"/>
    <poly id="129446595" type="building" color="255,230,230" fill="1" layer="-1.00" shape="1000.774656,1167.248455 1005.263854,1167.357209 1024.573344,1167.182103 1024.723726,1154.026640 1001.676296,1153.609713 1000.774656,1167.248455"/>
    <poly id="129446596" type="building" color="255,230,230" fill="1" layer="-1.00" shape="1001.871219,1122.515244 1025.072863,1123.108563 1025.211498,1113.827321 1012.157333,1113.220242 1011.027893,1113.095978 1002.398863,1113.075511 1001.871219,1122.515244"/>
    <poly id="129446597" type="building" color="255,230,230" fill="1" layer="-1.00" shape="1001.453729,1216.563277 1012.821032,1216.317842 1022.406875,1216.108730 1023.199645,1193.001995 1023.412379,1186.650738 1019.813575,1186.479420 1013.625916,1186.173196 1013.755595,1185.406224 1005.209906,1185.185284 1002.171925,1185.120540 1002.071391,1188.495934 1002.419500,1188.526479 1002.449611,1189.114575 1003.866353,1189.092254 1003.842967,1190.424517 1002.417038,1190.358106 1002.328505,1192.035006 1002.093282,1199.829527 1001.453729,1216.563277"/>