<vTypes>
	<vType id="uav_type" 
       vClass="passenger" 
       length="0.5" 
       width="0.5" 
       height="0.3" 
       maxSpeed="20"
       guiShape="aircraft"/>

       <vType id="car_type" 
       vClass="passenger"/>
</vTypes>
