<?xml version="1.0" encoding="UTF-8"?>

<!-- generated on 2026-02-17 11:42:55.080805 by randomTrips.py UNKNOWN
<configuration>
    <net-file value="madrid.net.xml"/>
    <output-trip-file value="madrid.trips.xml"/>
    <route-file value="madrid.rou.xml"/>
</configuration>
-->

<!-- generated on 2026-02-17 11:42:55 by Eclipse SUMO duarouter Version 1.22.0
<duarouterConfiguration xmlns:xsi="http://www.w3.org/2001/XMLSchema-instance" xsi:noNamespaceSchemaLocation="http://sumo.dlr.de/xsd/duarouterConfiguration.xsd">

    <input>
        <net-file value="madrid.net.xml"/>
        <route-files value="madrid.trips.xml"/>
    </input>

    <output>
        <output-file value="madrid.rou.xml"/>
        <alternatives-output value="NUL"/>
    </output>

    <time>
        <begin value="0"/>
        <end value="3600.0"/>
    </time>

    <report>
        <no-warnings value="true"/>
        <ignore-errors value="true"/>
        <no-step-log value="true"/>
    </report>

</duarouterConfiguration>
-->

<routes xmlns:xsi="http://www.w3.org/2001/XMLSchema-instance" xsi:noNamespaceSchemaLocation="http://sumo.dlr.de/xsd/routes_file.xsd">
    <vehicle type="car_type" id="2" depart="2.00">
        <route edges="511241905#0 511241905#1 7971500 813598084 1289077480 7726294 1471946775#1 1471946774 1057894241#0 1057894241#1 511895814#0 511895814#1 626418867#0 626418867#1 43759793#0 43759793#1 43759793#2 43759793#3"/>
    </vehicle>
    <vehicle type="car_type" id="11" depart="11.00">
        <route edges="31021779#0 138884771#0 138884771#1 -31021780 -7971928 -263793367#2 -263793367#1 -263793367#0 263793367#0 263793367#1 263793367#2 7971928 31021780 138884772#0"/>
    </vehicle>
    <vehicle type="car_type" id="14" depart="14.00">
        <route edges="7642926#0 4328798#0"/>
    </vehicle>
    <vehicle type="car_type" id="26" depart="26.00">
        <route edges="261728552#1 1471651029 417019353 511241905#0 511241905#1 7971500"/>
    </vehicle>
    <vehicle type="car_type" id="30" depart="30.00">
        <route edges="908546756#1 261728552#0 261728552#1 1471651029 417019353 511241905#0 511241905#1 7971500 813598084 7971499 1313587949 30676408 31261348#0 31261348#1 31261348#2 155872373#0 43410309"/>
    </vehicle>
    <vehicle type="car_type" id="39" depart="39.00">
        <route edges="261728552#1 1471651029 417019353 511241905#0 511241905#1 7971500 813598084 7971499 1313587949 30676408 31261348#0 31261348#1 31261348#2 155872373#0 155872373#1 155872373#2"/>
    </vehicle>
    <vehicle type="car_type" id="52" depart="52.00">
        <route edges="261728552#1 1471651029 417019353 511241905#0 511241905#1 7971500 813598084 7971499 1313587949 30676408 31261348#0 31261348#1 31261348#2 155872373#0 43410309"/>
    </vehicle>
    <vehicle type="car_type" id="57" depart="57.00">
        <route edges="7971489#0 7971489#1 155872373#0 43410309 43759728#0 43759728#1 1471946775#0 1471946775#1 1471946774 1057894241#0 1057894241#1 511895814#0 511895814#1 626418867#0 626418867#1 1286414023 43759788 1471651029 417019353 511241905#0 511241905#1 7971500 813598084 7971499 1313587949 30676408 30676403#0 30676403#1 30676403#2 29485945#0 29485945#1 29487231#0 29487231#1 7642965#0 7642965#1"/>
    </vehicle>
    <vehicle type="car_type" id="59" depart="59.00">
        <route edges="435012914#0 435012914#1 7971925#0 7971925#1 31021779#0 138884771#0 138884771#1"/>
    </vehicle>
    <vehicle type="car_type" id="65" depart="65.00">
        <route edges="30676403#2 29485945#0 29485945#1 29487231#0 29487231#1 7642965#0 7642965#1 7642965#2 1467701369#0 1467701369#1 1467701369#2 31261348#0 31261348#1 31261348#2 155872373#0 43410309 43759728#0 43759728#1 1471946775#0 1471946775#1 1471946774 1057894241#0 1057894241#1 511895814#0 511895814#1 626418867#0 626418867#1 1286414023 43759788 1471651029 417019353 314492751 984759713#0 984759713#1 7642926#0 4328798#0 4328798#1 4328798#2 41559062 4328801#0 4328801#1 4328801#2 -5935914#2 -5935914#1 -5935914#0"/>
    </vehicle>
    <vehicle type="car_type" id="68" depart="68.00">
        <route edges="1057894241#1 511895814#0 511895814#1 626418867#0 626418867#1 1286414023 43759788 1471651029 417019353 511241905#0 511241905#1 7971500 813598084 7971499 1313587949 30676408 31261348#0 31261348#1 31261348#2 155872373#0 155872373#1 7971492 1124860507#1 1124860507#2 1124860507#3 49031985#0"/>
    </vehicle>
    <vehicle type="car_type" id="71" depart="71.00">
        <route edges="261728552#1 1471651029 417019353 511241905#0 511241905#1 7971500 813598084 7971499 1313587949 30676408 30676403#0 30676403#1 30676403#2 29485945#0 29485945#1 29487231#0 29487231#1 7642965#0 7642965#1"/>
    </vehicle>
    <vehicle type="car_type" id="74" depart="74.00">
        <route edges="1471946774 1057894241#0 1057894241#1 511895814#0 511895814#1 626418867#0 626418867#1 1286414023 43759788 1471651029 417019353 511241905#0 511241905#1 7971500 813598084 7971499 1313587949 30676408 30676403#0 30676403#1 30676403#2 29485945#0 29485945#1 29487231#0 29487231#1"/>
    </vehicle>
    <vehicle type="car_type" id="79" depart="79.00">
        <route edges="155872373#1 7971492 1124860507#1 1124860507#2 7971489#0 7971489#1 155872373#0 43410309 43759728#0 43759728#1 1471946775#0 1471946775#1"/>
    </vehicle>
    <vehicle type="car_type" id="80" depart="80.00">
        <route edges="1124860507#0 1124860507#1 1124860507#2 7971489#0 7971489#1 155872373#0 43410309 43759728#0 43759728#1 1471946775#0 1471946775#1 1471946774 1057894241#0 1057894241#1 511895814#0 511895814#1 626418867#0 626418867#1 1286414023 43759788 1471651029 417019353 314492751 984759713#0 984759713#1 7642926#0 4328798#0 4328798#1 4328798#2 41559062 4328801#0 4328801#1 4328801#2 31021534#0 31021534#1 31021534#2 4328804#0 4328804#1"/>
    </vehicle>
    <vehicle type="car_type" id="85" depart="85.00">
        <route edges="7971500 813598084 1289077480 7726294 1471946775#1 1471946774 1057894241#0 1057894241#1 511895814#0 511895814#1 626418867#0 626418867#1 1286414023 43759788 1471651029 417019353 314492751 984759713#0 984759713#1 7642926#0 4328798#0 4328798#1 4328798#2 41559062 4328801#0 4328801#1 4328801#2 31021534#0 31021534#1 31021534#2 31021535 688424906#0 424852628#0 424852628#1 424852628#2"/>
    </vehicle>
    <vehicle type="car_type" id="90" depart="90.00">
        <route edges="49031985#0 49031985#1 29485945#0 29485945#1 29487231#0 29487231#1 7642965#0 7642965#1 7642965#2 1467701369#0 1467701369#1 1467701369#2 31261348#0 31261348#1 31261348#2 155872373#0 43410309 43759728#0 43759728#1 1471946775#0 1471946775#1 1471946774 1057894241#0 1057894241#1 511895814#0 511895814#1 626418867#0 626418867#1 43759793#0 43759793#1 43759793#2"/>
    </vehicle>
    <vehicle type="car_type" id="99" depart="99.00">
        <route edges="984759713#1 7642926#0 4328798#0 4328798#1 4328798#2 41559062 4328801#0 4328801#1 4328801#2 31021534#0 31021534#1 31021534#2 31021535 688424906#0"/>
    </vehicle>
    <vehicle type="car_type" id="105" depart="105.00">
        <route edges="261728552#1 1471651029 417019353 511241905#0 511241905#1 7971500 813598084 1289077480 7726294 1471946775#1 1471946774 1057894241#0 1057894241#1 511895814#0 511895814#1"/>
    </vehicle>
    <vehicle type="car_type" id="114" depart="114.00">
        <route edges="138884772#2 31021779#3 31021779#4 31021779#5 31021779#6 17760812#0 30247268 7971930"/>
    </vehicle>
    <vehicle type="car_type" id="115" depart="115.00">
        <route edges="1124860507#2 1124860507#3 49031985#0 49031985#1 29485945#0 29485945#1 29487231#0 29487231#1 7642965#0 7642965#1 7642965#2 1467701369#0"/>
    </vehicle>
    <vehicle type="car_type" id="127" depart="127.00">
        <route edges="984759713#1"/>
    </vehicle>
    <vehicle type="car_type" id="128" depart="128.00">
        <route edges="1124860507#0 1124860507#1 1124860507#2 7971489#0 7971489#1 155872373#0 43410309 43759728#0 43759728#1 1471946775#0 1471946775#1 1471946774"/>
    </vehicle>
    <vehicle type="car_type" id="129" depart="129.00">
        <route edges="261728552#1 1471651029 417019353 511241905#0 511241905#1 7971500 813598084 7971499"/>
    </vehicle>
    <vehicle type="car_type" id="131" depart="131.00">
        <route edges="31021780 138884772#0"/>
    </vehicle>
    <vehicle type="car_type" id="147" depart="147.00">
        <route edges="511241905#1 7971500 813598084 1289077480 7726294 1471946775#1 1471946774 1057894241#0 1057894241#1 511895814#0 511895814#1 626418867#0 626418867#1 1286414023 43759788 1471651029 417019353 314492751 984759713#0 984759713#1 7642926#0 7642926#1 7642926#2 1471651030#0 1471651030#1 1471651030#2 419119406#0"/>
    </vehicle>
    <vehicle type="car_type" id="148" depart="148.00">
        <route edges="314492751 984759713#0 984759713#1 7642926#0 7642926#1 7642926#2 1471651030#0 335825753#1 1287224511#0 1287224511#1 1287224510 -1388187399"/>
    </vehicle>
    <vehicle type="car_type" id="154" depart="154.00">
        <route edges="626418867#0 626418867#1 1286414023 43759788 1471651029 417019353 314492751 984759713#0 984759713#1 7642926#0 7642926#1"/>
    </vehicle>
    <vehicle type="car_type" id="157" depart="157.00">
        <route edges="5935913 363611231 263793367#0 263793367#1 263793367#2 7971928 31021780 138884772#0 138884772#1 138884772#2 31021779#3 31021779#4 31021779#5 31021779#6 17760812#0 17760812#1 17760812#2 17760808 79483259#0 79483259#1 79483259#2 767647778"/>
    </vehicle>
    <vehicle type="car_type" id="160" depart="160.00">
        <route edges="7642965#0 7642965#1 7642965#2 1467701369#0 1467701369#1 1467701369#2 31261348#0 31261348#1 31261348#2 155872373#0 43410309 43759728#0 43759728#1 1471946775#0 1471946775#1 1471946774 90210746"/>
    </vehicle>
    <vehicle type="car_type" id="164" depart="164.00">
        <route edges="626418867#1 1286414023 43759788 1471651029 417019353 314492751 984759713#0 984759713#1 7642926#0 7642926#1 7642926#2"/>
    </vehicle>
    <vehicle type="car_type" id="167" depart="167.00">
        <route edges="7642965#2 1467701369#0 1467701369#1 1467701369#2 31261348#0 31261348#1 31261348#2 155872373#0 43410309 43759728#0 43759728#1 1471946775#0 1471946775#1 1471946774 1057894241#0 1057894241#1 511895814#0 511895814#1 626418867#0 626418867#1 1286414023 43759788 1471651029 417019353 314492751 984759713#0 984759713#1 7642926#0 7642926#1"/>
    </vehicle>
    <vehicle type="car_type" id="178" depart="178.00">
        <route edges="7971930 31021778#0 31021778#1 31021779#5 31021779#6 17760812#0 17760812#1"/>
    </vehicle>
    <vehicle type="car_type" id="182" depart="182.00">
        <route edges="31261348#0 31261348#1 31261348#2 155872373#0 43410309 43759728#0 43759728#1 1471946775#0 1471946775#1 1471946774 1057894241#0 1057894241#1 511895814#0 511895814#1 626418867#0 626418867#1 1286414023 43759788 1471651029 417019353 314492751 984759713#0 984759713#1 7642926#0 4328798#0 4328798#1 4328798#2 41559062 4328801#0 4328801#1 4328801#2 31021534#0 31021534#1 31021534#2 31021535 688424906#0 424852628#0 424852628#1 424852628#2 424852628#3"/>
    </vehicle>
    <vehicle type="car_type" id="186" depart="186.00">
        <route edges="511241905#1 7971500 813598084 1289077480 7726294 1471946775#1 1471946774 1057894241#0 1057894241#1 511895814#0 511895814#1 626418867#0 626418867#1 43759793#0 43759793#1"/>
    </vehicle>
    <vehicle type="car_type" id="189" depart="189.00">
        <route edges="30676408 31261348#0 31261348#1 31261348#2 155872373#0 43410309 43759728#0 43759728#1 1471946775#0 1471946775#1 1471946774 1057894241#0 1057894241#1 511895814#0 511895814#1 626418867#0 626418867#1 1286414023 43759788 1471651029 417019353 314492751 984759713#0 984759713#1 7642926#0 4328798#0 4328798#1 4328798#2 41559062 4328801#0 4328801#1 4328801#2 31021534#0 31021534#1 31021534#2 31021535 688424906#0 688424906#1 688424906#2 688424906#3"/>
    </vehicle>
    <vehicle type="car_type" id="191" depart="191.00">
        <route edges="30676403#2 29485945#0 29485945#1 29487231#0 29487231#1 7642965#0 7642965#1 7642965#2 1467701369#0 1467701369#1 1467701369#2 31261348#0 31261348#1"/>
    </vehicle>
    <vehicle type="car_type" id="196" depart="196.00">
        <route edges="30676403#0 30676403#1 30676403#2 29485945#0 29485945#1 29487231#0 29487231#1 7642965#0 7642965#1 7642965#2 1467701369#0 1467701369#1 1467701369#2 31261348#0 31261348#1 31261348#2 155872373#0 43410309 43759728#0 43759728#1 1471946775#0 1471946775#1 1471946774 1057894241#0 1057894241#1 511895814#0 511895814#1 626418867#0 626418867#1 1286414023 43759788 1471651029 417019353"/>
    </vehicle>
    <vehicle type="car_type" id="203" depart="203.00">
        <route edges="1124860507#3 49031985#0 49031985#1 29485945#0 29485945#1 29487231#0 29487231#1 7642965#0 7642965#1 7642965#2 1467701369#0 1467701369#1 1467701369#2 31261348#0 31261348#1 31261348#2 155872373#0 43410309 43759728#0 43759728#1 1471946775#0 1471946775#1 1471946774 1057894241#0 1057894241#1 511895814#0 511895814#1 626418867#0 626418867#1 1286414023 43759788 1471651029 417019353 314492751 984759713#0 984759713#1 7642926#0 4328798#0 4328798#1 4328798#2 41559062"/>
    </vehicle>
    <vehicle type="car_type" id="208" depart="208.00">
        <route edges="17760812#0 17760812#1 17760812#2 7971935 334382543#0"/>
    </vehicle>
    <vehicle type="car_type" id="214" depart="214.00">
        <route edges="511895814#1 626418867#0 626418867#1 1286414023 43759788 1471651029 417019353 511241905#0"/>
    </vehicle>
    <vehicle type="car_type" id="217" depart="217.00">
        <route edges="417019353 314492751 984759713#0 984759713#1 7642926#0 4328798#0 4328798#1 4328798#2 41559062 4328801#0 4328801#1 4328801#2 31021534#0 31021534#1 31021534#2 4328804#0 4328804#1 4328804#2 -4328804#2 -4328804#1"/>
    </vehicle>
    <vehicle type="car_type" id="243" depart="243.00">
        <route edges="31261528#6 49016406#0 49016406#1"/>
    </vehicle>
    <vehicle type="car_type" id="244" depart="244.00">
        <route edges="431767099 1336461271 1336461272 908546756#0 908546756#1 261728552#0 261728552#1 1471651029 417019353 314492751 984759713#0 984759713#1 7642926#0 4328798#0"/>
    </vehicle>
    <vehicle type="car_type" id="255" depart="255.00">
        <route edges="1471946775#1 1471946774 1057894241#0 1057894241#1 511895814#0 511895814#1 626418867#0 626418867#1 1286414023 43759788 1471651029 417019353 511241905#0 511241905#1 7971500 813598084 7971499 1313587949 30676408 30676403#0 30676403#1 30676403#2"/>
    </vehicle>
    <vehicle type="car_type" id="265" depart="265.00">
        <route edges="1336461272 908546756#0 908546756#1 261728552#0 261728552#1 1471651029 417019353 511241905#0 511241905#1 7971500 813598084 1289077480 7726294 1471946775#1 1471946774 1057894241#0 1057894241#1 511895814#0 511895814#1 626418867#0 626418867#1 43759793#0 43759793#1"/>
    </vehicle>
    <vehicle type="car_type" id="266" depart="266.00">
        <route edges="4328790#1 1467701369#0 1467701369#1 1467701369#2 31261348#0 31261348#1 31261348#2 155872373#0 43410309 43759728#0 43759728#1 1471946775#0"/>
    </vehicle>
    <vehicle type="car_type" id="268" depart="268.00">
        <route edges="1467701368#2 1467701368#3 4328790#0 4328790#1 1467701369#0 1467701369#1 1467701369#2 31261348#0 31261348#1 31261348#2 155872373#0 43410309 43759728#0 43759728#1 1471946775#0 1471946775#1 1471946774 1057894241#0 1057894241#1 511895814#0 511895814#1 626418867#0 626418867#1 1286414023 43759788 1471651029 417019353 314492751 984759713#0 984759713#1 7642926#0 4328798#0 4328798#1"/>
    </vehicle>
    <vehicle type="car_type" id="269" depart="269.00">
        <route edges="511895814#0 511895814#1 626418867#0 626418867#1 1286414023 43759788 1471651029 417019353 314492751 984759713#0 984759713#1 7642926#0 7642926#1 7642926#2 1471651030#0 335825753#1 1287224511#0 1287224511#1 1287224510"/>
    </vehicle>
    <vehicle type="car_type" id="272" depart="272.00">
        <route edges="30676408 31261348#0 31261348#1 31261348#2 155872373#0 43410309 43759728#0 43759728#1 1471946775#0 1471946775#1 1471946774 1057894241#0 1057894241#1 511895814#0 511895814#1 626418867#0 626418867#1 43759793#0 43759793#1 43759793#2 43759793#3"/>
    </vehicle>
    <vehicle type="car_type" id="276" depart="276.00">
        <route edges="1286414023 43759788 1471651029 417019353 511241905#0 511241905#1"/>
    </vehicle>
    <vehicle type="car_type" id="296" depart="296.00">
        <route edges="1471946775#1 1471946774 1057894241#0 1057894241#1 511895814#0 511895814#1 626418867#0 626418867#1 1286414023 43759788 1471651029 417019353 314492751 984759713#0 984759713#1 7642926#0 4328798#0 4328798#1 4328798#2 41559062 4328801#0 4328801#1 4328801#2 -5935914#2 -5935914#1 -5935914#0 5935914#0 5935914#1"/>
    </vehicle>
    <vehicle type="car_type" id="301" depart="301.00">
        <route edges="41600137#0 41600137#1 49016408#0 49016408#1"/>
    </vehicle>
    <vehicle type="car_type" id="308" depart="308.00">
        <route edges="511895814#0 511895814#1 626418867#0 626418867#1 1286414023 43759788 1471651029 417019353 511241905#0 511241905#1 7971500 813598084 7971499 1313587949 30676408"/>
    </vehicle>
    <vehicle type="car_type" id="311" depart="311.00">
        <route edges="1471651030#0 335825753#1 1287224511#0"/>
    </vehicle>
    <vehicle type="car_type" id="313" depart="313.00">
        <route edges="1471651029 417019353 511241905#0 511241905#1 7971500 813598084 7971499 1313587949 30676408 31261348#0 31261348#1 31261348#2 155872373#0 43410309 43759728#0 43759728#1 1471946775#0"/>
    </vehicle>
    <vehicle type="car_type" id="318" depart="318.00">
        <route edges="1467701369#1 1467701369#2 31261348#0 31261348#1 31261348#2 155872373#0 43410309 43759728#0 43759728#1 1471946775#0 1471946775#1 1471946774 1057894241#0 1057894241#1 511895814#0 511895814#1 626418867#0 626418867#1 1286414023 43759788 1471651029 417019353 314492751 984759713#0 984759713#1 7642926#0 7642926#1 7642926#2 1471651030#0 335825753#1 1287224511#0 1287224511#1 1287224510 -1388187400"/>
    </vehicle>
    <vehicle type="car_type" id="320" depart="320.00">
        <route edges="813598084 1289077480 7726294 1471946775#1 1471946774 1057894241#0 1057894241#1 511895814#0 511895814#1 626418867#0 626418867#1 1286414023 43759788 1471651029 417019353 314492751 984759713#0 984759713#1 7642926#0 7642926#1 7642926#2 1471651030#0 1471651030#1 1471651030#2 419119406#0 419119406#1"/>
    </vehicle>
    <vehicle type="car_type" id="323" depart="323.00">
        <route edges="7642965#2 1467701369#0 1467701369#1 1467701369#2 31261348#0 31261348#1 31261348#2 155872373#0 43410309 43759728#0 43759728#1 1471946775#0 1471946775#1 1471946774 1057894241#0 1057894241#1 511895814#0 511895814#1 626418867#0 626418867#1 1286414023 43759788 1471651029 417019353 314492751 984759713#0 984759713#1 7642926#0 4328798#0 4328798#1 4328798#2 41559062 4328801#0 4328801#1 4328801#2 31021534#0 31021534#1 31021534#2 31021535 688424906#0 424852628#0 424852628#1 424852628#2 424852628#3"/>
    </vehicle>
    <vehicle type="car_type" id="325" depart="325.00">
        <route edges="1467701369#2 31261348#0 31261348#1 31261348#2 155872373#0 43410309 43759728#0 43759728#1 1471946775#0 1471946775#1 1471946774 1057894241#0 1057894241#1 511895814#0 511895814#1 626418867#0 626418867#1 1286414023 43759788 1471651029 417019353 314492751 984759713#0 984759713#1 7642926#0 4328798#0 4328798#1 4328798#2 41559062 4328801#0 4328801#1 4328801#2 31021534#0 31021534#1 31021534#2 4328804#0 4328804#1 4328804#2 -4328804#2 -4328804#1"/>
    </vehicle>
    <vehicle type="car_type" id="326" depart="326.00">
        <route edges="7971925#0 7971925#1 31021779#0 31021779#1 31021779#2 31021779#3 31021779#4 31021779#5 31021779#6 17760812#0 17760812#1 17760812#2 7971935 334382543#0 334382543#1"/>
    </vehicle>
    <vehicle type="car_type" id="328" depart="328.00">
        <route edges="1124860507#0 1124860507#1 1124860507#2 7971489#0 7971489#1 155872373#0 43410309 43759728#0 43759728#1 1471946775#0 1471946775#1 1471946774 1057894241#0 1057894241#1 511895814#0 511895814#1 626418867#0 626418867#1 1286414023 43759788 1471651029 417019353 314492751 984759713#0 984759713#1 7642926#0 4328798#0 4328798#1 4328798#2 41559062 4328801#0 4328801#1 4328801#2 31021534#0 31021534#1 31021534#2 4328804#0"/>
    </vehicle>
    <vehicle type="car_type" id="330" depart="330.00">
        <route edges="4328790#0 4328790#1 1467701369#0 1467701369#1 1467701369#2 30676403#0 30676403#1 30676403#2 29485945#0 29485945#1"/>
    </vehicle>
    <vehicle type="car_type" id="331" depart="331.00">
        <route edges="984759713#0 984759713#1 7642926#0 7642926#1 7642926#2 1471651030#0 335825753#1 1287224511#0"/>
    </vehicle>
    <vehicle type="car_type" id="336" depart="336.00">
        <route edges="908546756#1 261728552#0 261728552#1 1471651029 417019353 511241905#0 511241905#1 7971500 813598084 7971499 1313587949 30676408 30676403#0 30676403#1 30676403#2 29485945#0 29485945#1 29487231#0"/>
    </vehicle>
    <vehicle type="car_type" id="337" depart="337.00">
        <route edges="43759728#1 1471946775#0 1471946775#1 1471946774 1057894241#0 1057894241#1 511895814#0 511895814#1 626418867#0 626418867#1 1286414023 43759788 1471651029 417019353 314492751 984759713#0 984759713#1 7642926#0 4328798#0 4328798#1"/>
    </vehicle>
    <vehicle type="car_type" id="339" depart="339.00">
        <route edges="1471946775#0 1471946775#1 1471946774 1057894241#0 1057894241#1 511895814#0 511895814#1 626418867#0 626418867#1 1286414023 43759788 1471651029 417019353 314492751 984759713#0 984759713#1 7642926#0 7642926#1 7642926#2 1471651030#0 1471651030#1 1471651030#2"/>
    </vehicle>
    <vehicle type="car_type" id="340" depart="340.00">
        <route edges="4518851#1 435012914#0 435012914#1 7971925#0 7971925#1 31021779#0 138884771#0 138884771#1 -31021780 -7971928 -263793367#2 -263793367#1 -263793367#0 263793367#0 263793367#1 263793367#2 7971928 31021780 138884772#0"/>
    </vehicle>
    <vehicle type="car_type" id="346" depart="346.00">
        <route edges="46098088#2 431767099 1336461271 1336461272 908546756#0 908546756#1 261728552#0 261728552#1 1471651029 417019353 511241905#0 511241905#1 7971500 813598084 7971499 1313587949 30676408 31261348#0 31261348#1 31261348#2 155872373#0 155872373#1 7971492"/>
    </vehicle>
    <vehicle type="car_type" id="352" depart="352.00">
        <route edges="1467701368#2 1467701368#3 4328790#0 4328790#1 1467701369#0 1467701369#1 1467701369#2 30676403#0 30676403#1 30676403#2 29485945#0 29485945#1 29487231#0"/>
    </vehicle>
    <vehicle type="car_type" id="353" depart="353.00">
        <route edges="511895814#1 626418867#0 626418867#1 1286414023 43759788 1471651029 417019353 314492751 984759713#0 984759713#1 7642926#0 4328798#0 4328798#1 4328798#2 41559062 4328801#0 4328801#1 4328801#2 31021534#0 31021534#1 31021534#2 31021535 688424906#0 424852628#0 424852628#1 424852628#2"/>
    </vehicle>
    <vehicle type="car_type" id="354" depart="354.00">
        <route edges="29487231#0 29487231#1 7642965#0 7642965#1 7642965#2 1467701369#0 1467701369#1 1467701369#2 31261348#0 31261348#1 31261348#2 155872373#0 43410309 43759728#0 43759728#1 1471946775#0 1471946775#1 1471946774 1057894241#0 1057894241#1 511895814#0 511895814#1 626418867#0 626418867#1 1286414023 43759788 1471651029 417019353 314492751 984759713#0 984759713#1 7642926#0 7642926#1 7642926#2 1471651030#0 335825753#1 1287224511#0 1287224511#1"/>
    </vehicle>
    <vehicle type="car_type" id="360" depart="360.00">
        <route edges="1275419910 4487676 31053358#0 31053358#1 7971923 334382541#0 334382541#1 334382542#0 334382542#1 334382542#2 17760812#0 30247268 7971930"/>
    </vehicle>
    <vehicle type="car_type" id="367" depart="367.00">
        <route edges="4328801#0 4328801#1 4328801#2 31021534#0 31021534#1 31021534#2 4328804#0 4328804#1 4328804#2"/>
    </vehicle>
    <vehicle type="car_type" id="377" depart="377.00">
        <route edges="908546756#0 908546756#1 261728552#0 261728552#1 1471651029 417019353 511241905#0 511241905#1 7971500 813598084 7971499 1313587949 30676408 31261348#0 31261348#1 31261348#2 155872373#0 43410309 43759728#0 43759728#1"/>
    </vehicle>
    <vehicle type="car_type" id="380" depart="380.00">
        <route edges="556954608 1467701368#0 1467701368#1 1467701368#2 1467701368#3 4328790#0 4328790#1 1467701369#0 1467701369#1 1467701369#2 31261348#0 31261348#1 31261348#2 155872373#0 43410309 43759728#0 43759728#1 1471946775#0 1471946775#1 1471946774 1057894241#0 1057894241#1 511895814#0 511895814#1 626418867#0 626418867#1 1286414023 43759788 1471651029 417019353 314492751 984759713#0 984759713#1 7642926#0 4328798#0 4328798#1 4328798#2 41559062 4328801#0 4328801#1 4328801#2"/>
    </vehicle>
    <vehicle type="car_type" id="384" depart="384.00">
        <route edges="1313587949 30676408 31261348#0 31261348#1 31261348#2 155872373#0 43410309 43759728#0 43759728#1 1471946775#0 1471946775#1 1471946774 1057894241#0 1057894241#1 511895814#0 511895814#1 626418867#0 626418867#1 1286414023 43759788 1471651029 417019353 511241905#0 511241905#1 7971500 813598084"/>
    </vehicle>
    <vehicle type="car_type" id="386" depart="386.00">
        <route edges="1467701368#0 1467701368#1 1467701368#2 1467701368#3 4328790#0 4328790#1 1467701369#0 1467701369#1 1467701369#2 31261348#0 31261348#1 31261348#2 155872373#0 43410309 43759728#0 43759728#1 1471946775#0 1471946775#1 1471946774 1057894241#0 1057894241#1 511895814#0 511895814#1 626418867#0 626418867#1 1286414023 43759788 1471651029 417019353 314492751 984759713#0 984759713#1 7642926#0 7642926#1 7642926#2 1471651030#0 1471651030#1 1471651030#2 419119406#0"/>
    </vehicle>
    <vehicle type="car_type" id="393" depart="393.00">
        <route edges="82552700 1467701368#0 1467701368#1 1467701368#2 1467701368#3 4328790#0 4328790#1 1467701369#0 1467701369#1 1467701369#2 31261348#0 31261348#1 31261348#2 155872373#0 155872373#1"/>
    </vehicle>
    <vehicle type="car_type" id="400" depart="400.00">
        <route edges="29485945#0"/>
    </vehicle>
    <vehicle type="car_type" id="408" depart="408.00">
        <route edges="5930467#2 -419119406#2"/>
    </vehicle>
    <vehicle type="car_type" id="410" depart="410.00">
        <route edges="652285630#0 652285630#1 1275419909 79483254 1275419910 4487676 31053358#0 31053358#1 7971923 334382541#0 334382541#1 334382542#0 334382542#1 334382542#2 17760812#0 30247268 7971930 31021778#0 31021778#1 31021779#5 31021779#6"/>
    </vehicle>
    <vehicle type="car_type" id="418" depart="418.00">
        <route edges="4518851#0 4518851#1 435012914#0 435012914#1 7971925#0 7971925#1 31021779#0 138884771#0 138884771#1"/>
    </vehicle>
    <vehicle type="car_type" id="422" depart="422.00">
        <route edges="7642926#1"/>
    </vehicle>
    <vehicle type="car_type" id="423" depart="423.00">
        <route edges="31053358#1 7971923 334382541#0 334382541#1 334382542#0 334382542#1 334382542#2 17760812#0 30247268"/>
    </vehicle>
    <vehicle type="car_type" id="425" depart="425.00">
        <route edges="7642965#2 1467701369#0 1467701369#1 1467701369#2 31261348#0 31261348#1 31261348#2 155872373#0 43410309 43759728#0 43759728#1 1471946775#0 1471946775#1 1471946774 1057894241#0 1057894241#1 511895814#0 511895814#1 626418867#0 626418867#1 1286414023 43759788 1471651029 417019353 314492751 984759713#0 984759713#1 7642926#0 7642926#1 7642926#2 1471651030#0 335825753#1 1287224511#0 1287224511#1 1287224510 -1388187400 -419119406#2 -419119406#1 -419119406#0"/>
    </vehicle>
    <vehicle type="car_type" id="426" depart="426.00">
        <route edges="1057894241#1 511895814#0 511895814#1 626418867#0 626418867#1 1286414023 43759788 1471651029 417019353 314492751 984759713#0 984759713#1 7642926#0 4328798#0 4328798#1 4328798#2 41559062 4328801#0 4328801#1 4328801#2 31021534#0 31021534#1 31021534#2 4328804#0 4328804#1"/>
    </vehicle>
    <vehicle type="car_type" id="427" depart="427.00">
        <route edges="7971492 1124860507#1 1124860507#2 7971489#0 7971489#1 155872373#0 43410309 43759728#0 43759728#1 1471946775#0 1471946775#1 1471946774 1057894241#0 1057894241#1 511895814#0 511895814#1 626418867#0 626418867#1 1286414023 43759788 1471651029 417019353 314492751 984759713#0 984759713#1"/>
    </vehicle>
    <vehicle type="car_type" id="429" depart="429.00">
        <route edges="1286414023 43759788 1471651029 417019353 314492751 984759713#0 984759713#1 7642926#0 4328798#0 4328798#1 4328798#2 41559062 4328801#0 4328801#1 4328801#2 31021534#0 31021534#1 31021534#2 4328804#0 4328804#1"/>
    </vehicle>
    <vehicle type="car_type" id="436" depart="436.00">
        <route edges="1467701368#3 4328790#0 4328790#1 1467701369#0 1467701369#1 1467701369#2 31261348#0 31261348#1 31261348#2 155872373#0 43410309 43759728#0 43759728#1 1471946775#0 1471946775#1 1471946774 1057894241#0"/>
    </vehicle>
    <vehicle type="car_type" id="437" depart="437.00">
        <route edges="7642965#2 1467701369#0 1467701369#1 1467701369#2 31261348#0 31261348#1 31261348#2 155872373#0 43410309 43759728#0 43759728#1 1471946775#0 1471946775#1 1471946774 1057894241#0 1057894241#1 511895814#0 511895814#1 626418867#0 626418867#1 1286414023 43759788 1471651029 417019353 314492751 984759713#0 984759713#1 7642926#0 4328798#0 4328798#1 4328798#2 41559062 4328801#0 4328801#1"/>
    </vehicle>
    <vehicle type="car_type" id="438" depart="438.00">
        <route edges="17760808 79483259#0 79483259#1 79483259#2"/>
    </vehicle>
    <vehicle type="car_type" id="449" depart="449.00">
        <route edges="4328798#1 4328798#2 41559062 4328801#0 4328801#1 4328801#2 31021534#0 31021534#1 31021534#2 31021535 688424906#0 424852628#0 424852628#1 424852628#2 424852628#3"/>
    </vehicle>
    <vehicle type="car_type" id="451" depart="451.00">
        <route edges="82552700 1467701368#0 1467701368#1 1467701368#2 1467701368#3 4328790#0 4328790#1 1467701369#0 1467701369#1 1467701369#2 31261348#0 31261348#1 31261348#2 155872373#0 43410309 43759728#0 43759728#1"/>