[General]
network = dronestfg.simulations.DronesNetwork
sim-time-limit = 4000s

# ---------- Playground ----------
*.playgroundSizeX = 1500m
*.playgroundSizeY = 1300m
*.playgroundSizeZ = 500m
*.manager.margin = 50

# ---------- TraCI Manager ----------
*.manager.host = "localhost"
*.manager.port = 9999
*.manager.updateInterval = 1s
*.manager.autoShutdown = true
*.manager.order = 1

# Sin mapping por vType - crea módulos para TODOS los vehículos
*.manager.moduleType = "uav_type=dronestfg.nodes.UAV car_type=dronestfg.nodes.UAV"
*.manager.moduleName = "uav_type=uav car_type=car"
*.manager.moduleDisplayString = "uav_type='i=block/aircraft' car_type='i=block/process'"